MODEL 1
REMARK VINA RESULT:    -5.433      0.000      0.000
REMARK INTER + INTRA:         -20.048
REMARK INTER:                 -13.532
REMARK INTRA:                  -6.517
REMARK UNBOUND:                -6.517
REMARK SMILES CCCCCCC[C@H](N)[C@H](O)C(=O)N[C@H](C)C(=O)N(C)[C@H](CC(C)C)C(=O)N[C@@H](Cc1ccc(O)cc1)C(=O)N[C@@H](Cc1ccc(O)cc1)C(=O)O
REMARK SMILES IDX 18 1 17 2 15 3 16 4 14 5 12 6 13 7 10 9 11 10 8 12 9 13 7 16
REMARK SMILES IDX 6 17 5 18 4 19 3 20 2 21 1 22 19 23 20 24 21 25 22 26 23 27
REMARK SMILES IDX 24 28 25 29 26 30 27 31 28 32 29 34 30 35 31 36 32 37 37 38
REMARK SMILES IDX 33 39 36 40 34 41 35 42 38 44 39 45 40 46 41 48 42 49 43 50
REMARK SMILES IDX 44 51 49 52 45 53 48 54 46 55 47 56 50 58 51 59 52 60
REMARK H PARENT 14 8 11 11 9 14 9 15 28 33 35 43 40 47 47 57 52 61
ROOT
ATOM      1  O   UNL     1      17.469   7.408   0.849  1.00  0.00    -0.272 OA
ATOM      2  C   UNL     1      16.825   8.378   1.275  1.00  0.00     0.245 C 
ENDROOT
BRANCH   2   3
ATOM      3  C   UNL     1      17.489   9.778   1.247  1.00  0.00     0.168 C 
ATOM      4  C   UNL     1      17.998  10.164   2.632  1.00  0.00     0.041 C 
BRANCH   3   5
ATOM      5  N   UNL     1      18.511   9.949   0.226  1.00  0.00    -0.342 N 
ATOM      6  C   UNL     1      18.190  10.114  -1.105  1.00  0.00     0.251 C 
ATOM      7  O   UNL     1      17.041  10.087  -1.532  1.00  0.00    -0.272 OA
ATOM      8  H   UNL     1      19.502   9.954   0.456  1.00  0.00     0.164 HD
BRANCH   6   9
ATOM      9  C   UNL     1      19.417  10.420  -1.978  1.00  0.00     0.219 C 
BRANCH   9  10
ATOM     10  O   UNL     1      20.516  10.945  -1.223  1.00  0.00    -0.382 OA
ATOM     11  H   UNL     1      20.817  11.713  -1.757  1.00  0.00     0.211 HD
ENDBRANCH   9  10
BRANCH   9  12
ATOM     12  C   UNL     1      19.868   9.211  -2.839  1.00  0.00     0.089 C 
BRANCH  12  13
ATOM     13  N   UNL     1      19.740   7.982  -2.023  1.00  0.00    -0.325 NA
ATOM     14  H   UNL     1      20.232   8.115  -1.137  1.00  0.00     0.119 HD
ATOM     15  H   UNL     1      20.236   7.220  -2.491  1.00  0.00     0.119 HD
ENDBRANCH  12  13
BRANCH  12  16
ATOM     16  C   UNL     1      19.136   9.030  -4.190  1.00  0.00     0.022 C 
BRANCH  16  17
ATOM     17  C   UNL     1      19.749   8.109  -5.254  1.00  0.00     0.002 C 
BRANCH  17  18
ATOM     18  C   UNL     1      18.913   6.878  -5.600  1.00  0.00     0.000 C 
BRANCH  18  19
ATOM     19  C   UNL     1      18.709   6.665  -7.106  1.00  0.00    -0.000 C 
BRANCH  19  20
ATOM     20  C   UNL     1      17.902   7.757  -7.814  1.00  0.00    -0.000 C 
BRANCH  20  21
ATOM     21  C   UNL     1      17.436   7.346  -9.213  1.00  0.00    -0.003 C 
ATOM     22  C   UNL     1      16.562   8.419  -9.844  1.00  0.00     0.004 C 
ENDBRANCH  20  21
ENDBRANCH  19  20
ENDBRANCH  18  19
ENDBRANCH  17  18
ENDBRANCH  16  17
ENDBRANCH  12  16
ENDBRANCH   9  12
ENDBRANCH   6   9
ENDBRANCH   3   5
ENDBRANCH   2   3
BRANCH   2  23
ATOM     23  N   UNL     1      15.496   8.220   1.651  1.00  0.00    -0.332 N 
ATOM     24  C   UNL     1      15.049   7.929   3.005  1.00  0.00     0.147 C 
BRANCH  23  25
ATOM     25  C   UNL     1      14.403   8.474   0.672  1.00  0.00     0.174 C 
BRANCH  25  26
ATOM     26  C   UNL     1      13.004   8.518   1.329  1.00  0.00     0.038 C 
BRANCH  26  27
ATOM     27  C   UNL     1      12.097   9.715   0.964  1.00  0.00    -0.015 C 
ATOM     28  C   UNL     1      12.771  10.685  -0.006  1.00  0.00     0.007 C 
ATOM     29  C   UNL     1      10.725   9.298   0.440  1.00  0.00     0.007 C 
ENDBRANCH  26  27
ENDBRANCH  25  26
BRANCH  25  30
ATOM     30  C   UNL     1      14.504   7.479  -0.508  1.00  0.00     0.243 C 
ATOM     31  O   UNL     1      14.090   6.324  -0.422  1.00  0.00    -0.273 OA
ATOM     32  N   UNL     1      15.089   7.968  -1.648  1.00  0.00    -0.342 N 
ATOM     33  H   UNL     1      15.278   8.973  -1.690  1.00  0.00     0.164 HD
BRANCH  32  34
ATOM     34  C   UNL     1      15.293   7.161  -2.854  1.00  0.00     0.175 C 
BRANCH  34  35
ATOM     35  C   UNL     1      15.698   8.036  -4.050  1.00  0.00     0.070 C 
BRANCH  35  36
ATOM     36  C   UNL     1      15.145   7.526  -5.361  1.00  0.00    -0.045 A 
ATOM     37  C   UNL     1      14.428   8.389  -6.204  1.00  0.00     0.007 A 
ATOM     38  C   UNL     1      15.318   6.189  -5.743  1.00  0.00     0.007 A 
ATOM     39  C   UNL     1      13.902   7.924  -7.409  1.00  0.00     0.046 A 
ATOM     40  C   UNL     1      14.790   5.722  -6.949  1.00  0.00     0.046 A 
ATOM     41  C   UNL     1      14.087   6.596  -7.773  1.00  0.00     0.115 A 
BRANCH  41  42
ATOM     42  O   UNL     1      13.555   6.181  -8.957  1.00  0.00    -0.508 OA
ATOM     43  H   UNL     1      14.027   6.630  -9.678  1.00  0.00     0.293 HD
ENDBRANCH  41  42
ENDBRANCH  35  36
ENDBRANCH  34  35
BRANCH  34  44
ATOM     44  C   UNL     1      16.359   6.088  -2.537  1.00  0.00     0.243 C 
ATOM     45  O   UNL     1      17.566   6.305  -2.478  1.00  0.00    -0.273 OA
ATOM     46  N   UNL     1      15.844   4.812  -2.450  1.00  0.00    -0.341 N 
ATOM     47  H   UNL     1      14.852   4.667  -2.622  1.00  0.00     0.164 HD
BRANCH  46  48
ATOM     48  C   UNL     1      16.670   3.623  -2.225  1.00  0.00     0.196 C 
BRANCH  48  49
ATOM     49  C   UNL     1      15.939   2.592  -1.349  1.00  0.00     0.072 C 
BRANCH  49  50
ATOM     50  C   UNL     1      15.700   3.090   0.058  1.00  0.00    -0.045 A 
ATOM     51  C   UNL     1      14.545   2.697   0.751  1.00  0.00     0.007 A 
ATOM     52  C   UNL     1      16.605   3.958   0.680  1.00  0.00     0.007 A 
ATOM     53  C   UNL     1      14.306   3.161   2.045  1.00  0.00     0.046 A 
ATOM     54  C   UNL     1      16.366   4.423   1.975  1.00  0.00     0.046 A 
ATOM     55  C   UNL     1      15.218   4.019   2.647  1.00  0.00     0.115 A 
BRANCH  55  56
ATOM     56  O   UNL     1      14.947   4.451   3.912  1.00  0.00    -0.508 OA
ATOM     57  H   UNL     1      14.925   5.421   3.906  1.00  0.00     0.293 HD
ENDBRANCH  55  56
ENDBRANCH  49  50
ENDBRANCH  48  49
BRANCH  48  58
ATOM     58  C   UNL     1      17.018   2.993  -3.581  1.00  0.00     0.326 C 
ATOM     59  O   UNL     1      18.094   2.535  -3.929  1.00  0.00    -0.250 OA
BRANCH  58  60
ATOM     60  O   UNL     1      15.971   2.955  -4.444  1.00  0.00    -0.480 OA
ATOM     61  H   UNL     1      15.854   3.896  -4.699  1.00  0.00     0.296 HD
ENDBRANCH  58  60
ENDBRANCH  48  58
ENDBRANCH  46  48
ENDBRANCH  34  44
ENDBRANCH  32  34
ENDBRANCH  25  30
ENDBRANCH  23  25
ENDBRANCH   2  23
TORSDOF 28
ENDMDL
MODEL 2
REMARK VINA RESULT:    -5.150      5.931     11.769
REMARK INTER + INTRA:         -19.344
REMARK INTER:                 -16.128
REMARK INTRA:                  -3.217
REMARK UNBOUND:                -6.517
REMARK SMILES CCCCCCC[C@H](N)[C@H](O)C(=O)N[C@H](C)C(=O)N(C)[C@H](CC(C)C)C(=O)N[C@@H](Cc1ccc(O)cc1)C(=O)N[C@@H](Cc1ccc(O)cc1)C(=O)O
REMARK SMILES IDX 18 1 17 2 15 3 16 4 14 5 12 6 13 7 10 9 11 10 8 12 9 13 7 16
REMARK SMILES IDX 6 17 5 18 4 19 3 20 2 21 1 22 19 23 20 24 21 25 22 26 23 27
REMARK SMILES IDX 24 28 25 29 26 30 27 31 28 32 29 34 30 35 31 36 32 37 37 38
REMARK SMILES IDX 33 39 36 40 34 41 35 42 38 44 39 45 40 46 41 48 42 49 43 50
REMARK SMILES IDX 44 51 49 52 45 53 48 54 46 55 47 56 50 58 51 59 52 60
REMARK H PARENT 14 8 11 11 9 14 9 15 28 33 35 43 40 47 47 57 52 61
ROOT
ATOM      1  O   UNL     1       7.867   9.515   0.972  1.00  0.00    -0.272 OA
ATOM      2  C   UNL     1       8.370   8.800   1.852  1.00  0.00     0.245 C 
ENDROOT
BRANCH   2   3
ATOM      3  C   UNL     1       7.447   8.223   2.955  1.00  0.00     0.168 C 
ATOM      4  C   UNL     1       8.255   7.428   3.975  1.00  0.00     0.041 C 
BRANCH   3   5
ATOM      5  N   UNL     1       6.576   9.197   3.593  1.00  0.00    -0.342 N 
ATOM      6  C   UNL     1       5.228   9.264   3.311  1.00  0.00     0.251 C 
ATOM      7  O   UNL     1       4.674   8.548   2.483  1.00  0.00    -0.272 OA
ATOM      8  H   UNL     1       6.928   9.868   4.273  1.00  0.00     0.164 HD
BRANCH   6   9
ATOM      9  C   UNL     1       4.482  10.268   4.205  1.00  0.00     0.219 C 
BRANCH   9  10
ATOM     10  O   UNL     1       3.707  11.208   3.452  1.00  0.00    -0.382 OA
ATOM     11  H   UNL     1       2.808  11.129   3.840  1.00  0.00     0.211 HD
ENDBRANCH   9  10
BRANCH   9  12
ATOM     12  C   UNL     1       3.615   9.585   5.295  1.00  0.00     0.089 C 
BRANCH  12  13
ATOM     13  N   UNL     1       3.329  10.580   6.354  1.00  0.00    -0.325 NA
ATOM     14  H   UNL     1       2.567  11.188   6.047  1.00  0.00     0.119 HD
ATOM     15  H   UNL     1       4.138  11.196   6.457  1.00  0.00     0.119 HD
ENDBRANCH  12  13
BRANCH  12  16
ATOM     16  C   UNL     1       2.298   8.936   4.805  1.00  0.00     0.022 C 
BRANCH  16  17
ATOM     17  C   UNL     1       0.981   9.297   5.507  1.00  0.00     0.002 C 
BRANCH  17  18
ATOM     18  C   UNL     1      -0.242   9.351   4.595  1.00  0.00     0.000 C 
BRANCH  18  19
ATOM     19  C   UNL     1      -0.672  10.772   4.210  1.00  0.00    -0.000 C 
BRANCH  19  20
ATOM     20  C   UNL     1       0.288  11.510   3.272  1.00  0.00    -0.000 C 
BRANCH  20  21
ATOM     21  C   UNL     1       0.114  11.114   1.804  1.00  0.00    -0.003 C 
ATOM     22  C   UNL     1       1.124  10.055   1.391  1.00  0.00     0.004 C 
ENDBRANCH  20  21
ENDBRANCH  19  20
ENDBRANCH  18  19
ENDBRANCH  17  18
ENDBRANCH  16  17
ENDBRANCH  12  16
ENDBRANCH   9  12
ENDBRANCH   6   9
ENDBRANCH   3   5
ENDBRANCH   2   3
BRANCH   2  23
ATOM     23  N   UNL     1       9.708   8.431   1.767  1.00  0.00    -0.332 N 
ATOM     24  C   UNL     1      10.189   7.205   1.148  1.00  0.00     0.147 C 
BRANCH  23  25
ATOM     25  C   UNL     1      10.775   9.369   2.213  1.00  0.00     0.174 C 
BRANCH  25  26
ATOM     26  C   UNL     1      10.240  10.501   3.122  1.00  0.00     0.038 C 
BRANCH  26  27
ATOM     27  C   UNL     1      10.742  10.521   4.583  1.00  0.00    -0.015 C 
ATOM     28  C   UNL     1       9.595  10.516   5.594  1.00  0.00     0.007 C 
ATOM     29  C   UNL     1      11.741   9.411   4.898  1.00  0.00     0.007 C 
ENDBRANCH  26  27
ENDBRANCH  25  26
BRANCH  25  30
ATOM     30  C   UNL     1      11.579   9.878   0.995  1.00  0.00     0.243 C 
ATOM     31  O   UNL     1      11.122  10.714   0.217  1.00  0.00    -0.273 OA
ATOM     32  N   UNL     1      12.827   9.331   0.838  1.00  0.00    -0.342 N 
ATOM     33  H   UNL     1      13.190   8.753   1.600  1.00  0.00     0.164 HD
BRANCH  32  34
ATOM     34  C   UNL     1      13.718   9.674  -0.274  1.00  0.00     0.175 C 
BRANCH  34  35
ATOM     35  C   UNL     1      15.071  10.195   0.235  1.00  0.00     0.070 C 
BRANCH  35  36
ATOM     36  C   UNL     1      15.231  10.044   1.731  1.00  0.00    -0.045 A 
ATOM     37  C   UNL     1      15.721   8.844   2.268  1.00  0.00     0.007 A 
ATOM     38  C   UNL     1      14.873  11.083   2.600  1.00  0.00     0.007 A 
ATOM     39  C   UNL     1      15.859   8.691   3.647  1.00  0.00     0.046 A 
ATOM     40  C   UNL     1      15.009  10.930   3.982  1.00  0.00     0.046 A 
ATOM     41  C   UNL     1      15.503   9.734   4.493  1.00  0.00     0.115 A 
BRANCH  41  42
ATOM     42  O   UNL     1      15.650   9.543   5.835  1.00  0.00    -0.508 OA
ATOM     43  H   UNL     1      16.142   8.717   5.973  1.00  0.00     0.293 HD
ENDBRANCH  41  42
ENDBRANCH  35  36
ENDBRANCH  34  35
BRANCH  34  44
ATOM     44  C   UNL     1      13.880   8.420  -1.162  1.00  0.00     0.243 C 
ATOM     45  O   UNL     1      13.274   7.366  -0.991  1.00  0.00    -0.273 OA
ATOM     46  N   UNL     1      14.876   8.542  -2.108  1.00  0.00    -0.341 N 
ATOM     47  H   UNL     1      15.430   9.394  -2.134  1.00  0.00     0.164 HD
BRANCH  46  48
ATOM     48  C   UNL     1      15.258   7.461  -3.019  1.00  0.00     0.196 C 
BRANCH  48  49
ATOM     49  C   UNL     1      15.890   8.013  -4.308  1.00  0.00     0.072 C 
BRANCH  49  50
ATOM     50  C   UNL     1      15.219   7.486  -5.556  1.00  0.00    -0.045 A 
ATOM     51  C   UNL     1      15.373   6.139  -5.917  1.00  0.00     0.007 A 
ATOM     52  C   UNL     1      14.458   8.329  -6.377  1.00  0.00     0.007 A 
ATOM     53  C   UNL     1      14.769   5.644  -7.073  1.00  0.00     0.046 A 
ATOM     54  C   UNL     1      13.855   7.834  -7.535  1.00  0.00     0.046 A 
ATOM     55  C   UNL     1      14.015   6.494  -7.873  1.00  0.00     0.115 A 
BRANCH  55  56
ATOM     56  O   UNL     1      13.444   5.972  -8.996  1.00  0.00    -0.508 OA
ATOM     57  H   UNL     1      13.923   5.163  -9.235  1.00  0.00     0.293 HD
ENDBRANCH  55  56
ENDBRANCH  49  50
ENDBRANCH  48  49
BRANCH  48  58
ATOM     58  C   UNL     1      16.260   6.540  -2.309  1.00  0.00     0.326 C 
ATOM     59  O   UNL     1      17.471   6.676  -2.242  1.00  0.00    -0.250 OA
BRANCH  58  60
ATOM     60  O   UNL     1      15.677   5.481  -1.692  1.00  0.00    -0.480 OA
ATOM     61  H   UNL     1      14.733   5.742  -1.637  1.00  0.00     0.296 HD
ENDBRANCH  58  60
ENDBRANCH  48  58
ENDBRANCH  46  48
ENDBRANCH  34  44
ENDBRANCH  32  34
ENDBRANCH  25  30
ENDBRANCH  23  25
ENDBRANCH   2  23
TORSDOF 28
ENDMDL
MODEL 3
REMARK VINA RESULT:    -4.529     14.502     19.095
REMARK INTER + INTRA:         -17.797
REMARK INTER:                 -10.323
REMARK INTRA:                  -7.474
REMARK UNBOUND:                -6.517
REMARK SMILES CCCCCCC[C@H](N)[C@H](O)C(=O)N[C@H](C)C(=O)N(C)[C@H](CC(C)C)C(=O)N[C@@H](Cc1ccc(O)cc1)C(=O)N[C@@H](Cc1ccc(O)cc1)C(=O)O
REMARK SMILES IDX 18 1 17 2 15 3 16 4 14 5 12 6 13 7 10 9 11 10 8 12 9 13 7 16
REMARK SMILES IDX 6 17 5 18 4 19 3 20 2 21 1 22 19 23 20 24 21 25 22 26 23 27
REMARK SMILES IDX 24 28 25 29 26 30 27 31 28 32 29 34 30 35 31 36 32 37 37 38
REMARK SMILES IDX 33 39 36 40 34 41 35 42 38 44 39 45 40 46 41 48 42 49 43 50
REMARK SMILES IDX 44 51 49 52 45 53 48 54 46 55 47 56 50 58 51 59 52 60
REMARK H PARENT 14 8 11 11 9 14 9 15 28 33 35 43 40 47 47 57 52 61
ROOT
ATOM      1  O   UNL     1      15.330 -12.885 -11.537  1.00  0.00    -0.272 OA
ATOM      2  C   UNL     1      14.568 -12.272 -10.775  1.00  0.00     0.245 C 
ENDROOT
BRANCH   2   3
ATOM      3  C   UNL     1      13.194 -11.807 -11.319  1.00  0.00     0.168 C 
ATOM      4  C   UNL     1      12.059 -12.350 -10.456  1.00  0.00     0.041 C 
BRANCH   3   5
ATOM      5  N   UNL     1      13.074 -10.373 -11.532  1.00  0.00    -0.342 N 
ATOM      6  C   UNL     1      13.487  -9.775 -12.704  1.00  0.00     0.251 C 
ATOM      7  O   UNL     1      14.017 -10.387 -13.625  1.00  0.00    -0.272 OA
ATOM      8  H   UNL     1      12.681  -9.757 -10.825  1.00  0.00     0.164 HD
BRANCH   6   9
ATOM      9  C   UNL     1      13.134  -8.280 -12.764  1.00  0.00     0.219 C 
BRANCH   9  10
ATOM     10  O   UNL     1      11.740  -8.051 -13.003  1.00  0.00    -0.382 OA
ATOM     11  H   UNL     1      11.297  -8.758 -12.484  1.00  0.00     0.211 HD
ENDBRANCH   9  10
BRANCH   9  12
ATOM     12  C   UNL     1      13.617  -7.489 -11.521  1.00  0.00     0.089 C 
BRANCH  12  13
ATOM     13  N   UNL     1      12.586  -7.606 -10.464  1.00  0.00    -0.325 NA
ATOM     14  H   UNL     1      13.014  -7.417  -9.555  1.00  0.00     0.119 HD
ATOM     15  H   UNL     1      12.271  -8.577 -10.414  1.00  0.00     0.119 HD
ENDBRANCH  12  13
BRANCH  12  16
ATOM     16  C   UNL     1      15.002  -7.890 -10.958  1.00  0.00     0.022 C 
BRANCH  16  17
ATOM     17  C   UNL     1      15.808  -6.860 -10.155  1.00  0.00     0.002 C 
BRANCH  17  18
ATOM     18  C   UNL     1      15.741  -7.029  -8.639  1.00  0.00     0.000 C 
BRANCH  18  19
ATOM     19  C   UNL     1      17.096  -6.881  -7.934  1.00  0.00    -0.000 C 
BRANCH  19  20
ATOM     20  C   UNL     1      17.161  -7.467  -6.521  1.00  0.00    -0.000 C 
BRANCH  20  21
ATOM     21  C   UNL     1      18.538  -7.312  -5.869  1.00  0.00    -0.003 C 
ATOM     22  C   UNL     1      19.608  -6.999  -6.903  1.00  0.00     0.004 C 
ENDBRANCH  20  21
ENDBRANCH  19  20
ENDBRANCH  18  19
ENDBRANCH  17  18
ENDBRANCH  16  17
ENDBRANCH  12  16
ENDBRANCH   9  12
ENDBRANCH   6   9
ENDBRANCH   3   5
ENDBRANCH   2   3
BRANCH   2  23
ATOM     23  N   UNL     1      14.900 -12.120  -9.433  1.00  0.00    -0.332 N 
ATOM     24  C   UNL     1      14.893 -13.197  -8.454  1.00  0.00     0.147 C 
BRANCH  23  25
ATOM     25  C   UNL     1      15.422 -10.820  -8.931  1.00  0.00     0.174 C 
BRANCH  25  26
ATOM     26  C   UNL     1      16.930 -10.868  -8.589  1.00  0.00     0.038 C 
BRANCH  26  27
ATOM     27  C   UNL     1      17.873 -10.011  -9.462  1.00  0.00    -0.015 C 
ATOM     28  C   UNL     1      19.330 -10.099  -9.009  1.00  0.00     0.007 C 
ATOM     29  C   UNL     1      17.757 -10.309 -10.955  1.00  0.00     0.007 C 
ENDBRANCH  26  27
ENDBRANCH  25  26
BRANCH  25  30
ATOM     30  C   UNL     1      14.539 -10.303  -7.772  1.00  0.00     0.243 C 
ATOM     31  O   UNL     1      14.861 -10.449  -6.594  1.00  0.00    -0.273 OA
ATOM     32  N   UNL     1      13.375  -9.681  -8.145  1.00  0.00    -0.342 N 
ATOM     33  H   UNL     1      13.247  -9.473  -9.138  1.00  0.00     0.164 HD
BRANCH  32  34
ATOM     34  C   UNL     1      12.404  -9.154  -7.182  1.00  0.00     0.175 C 
BRANCH  34  35
ATOM     35  C   UNL     1      12.489  -7.623  -7.085  1.00  0.00     0.070 C 
BRANCH  35  36
ATOM     36  C   UNL     1      13.279  -7.157  -5.882  1.00  0.00    -0.045 A 
ATOM     37  C   UNL     1      13.448  -8.009  -4.780  1.00  0.00     0.007 A 
ATOM     38  C   UNL     1      13.830  -5.869  -5.839  1.00  0.00     0.007 A 
ATOM     39  C   UNL     1      14.163  -7.582  -3.661  1.00  0.00     0.046 A 
ATOM     40  C   UNL     1      14.545  -5.441  -4.718  1.00  0.00     0.046 A 
ATOM     41  C   UNL     1      14.706  -6.304  -3.639  1.00  0.00     0.115 A 
BRANCH  41  42
ATOM     42  O   UNL     1      15.395  -5.925  -2.525  1.00  0.00    -0.508 OA
ATOM     43  H   UNL     1      16.345  -5.969  -2.724  1.00  0.00     0.293 HD
ENDBRANCH  41  42
ENDBRANCH  35  36
ENDBRANCH  34  35
BRANCH  34  44
ATOM     44  C   UNL     1      10.998  -9.628  -7.613  1.00  0.00     0.243 C 
ATOM     45  O   UNL     1      10.536 -10.739  -7.371  1.00  0.00    -0.273 OA
ATOM     46  N   UNL     1      10.338  -8.726  -8.421  1.00  0.00    -0.341 N 
ATOM     47  H   UNL     1      10.811  -7.866  -8.690  1.00  0.00     0.164 HD
BRANCH  46  48
ATOM     48  C   UNL     1       9.021  -8.982  -9.008  1.00  0.00     0.196 C 
BRANCH  48  49
ATOM     49  C   UNL     1       7.976  -7.976  -8.499  1.00  0.00     0.072 C 
BRANCH  49  50
ATOM     50  C   UNL     1       7.008  -8.590  -7.512  1.00  0.00    -0.045 A 
ATOM     51  C   UNL     1       7.496  -9.262  -6.382  1.00  0.00     0.007 A 
ATOM     52  C   UNL     1       5.625  -8.518  -7.719  1.00  0.00     0.007 A 
ATOM     53  C   UNL     1       6.613  -9.845  -5.472  1.00  0.00     0.046 A 
ATOM     54  C   UNL     1       4.741  -9.103  -6.809  1.00  0.00     0.046 A 
ATOM     55  C   UNL     1       5.244  -9.760  -5.691  1.00  0.00     0.115 A 
BRANCH  55  56
ATOM     56  O   UNL     1       4.415 -10.344  -4.779  1.00  0.00    -0.508 OA
ATOM     57  H   UNL     1       4.811 -11.185  -4.501  1.00  0.00     0.293 HD
ENDBRANCH  55  56
ENDBRANCH  49  50
ENDBRANCH  48  49
BRANCH  48  58
ATOM     58  C   UNL     1       9.128  -8.885 -10.536  1.00  0.00     0.326 C 
ATOM     59  O   UNL     1       8.340  -8.350 -11.299  1.00  0.00    -0.250 OA
BRANCH  58  60
ATOM     60  O   UNL     1      10.247  -9.463 -11.038  1.00  0.00    -0.480 OA
ATOM     61  H   UNL     1      10.648  -8.749 -11.579  1.00  0.00     0.296 HD
ENDBRANCH  58  60
ENDBRANCH  48  58
ENDBRANCH  46  48
ENDBRANCH  34  44
ENDBRANCH  32  34
ENDBRANCH  25  30
ENDBRANCH  23  25
ENDBRANCH   2  23
TORSDOF 28
ENDMDL
MODEL 4
REMARK VINA RESULT:    -4.522     15.393     18.892
REMARK INTER + INTRA:         -17.780
REMARK INTER:                  -9.636
REMARK INTRA:                  -8.144
REMARK UNBOUND:                -6.517
REMARK SMILES CCCCCCC[C@H](N)[C@H](O)C(=O)N[C@H](C)C(=O)N(C)[C@H](CC(C)C)C(=O)N[C@@H](Cc1ccc(O)cc1)C(=O)N[C@@H](Cc1ccc(O)cc1)C(=O)O
REMARK SMILES IDX 18 1 17 2 15 3 16 4 14 5 12 6 13 7 10 9 11 10 8 12 9 13 7 16
REMARK SMILES IDX 6 17 5 18 4 19 3 20 2 21 1 22 19 23 20 24 21 25 22 26 23 27
REMARK SMILES IDX 24 28 25 29 26 30 27 31 28 32 29 34 30 35 31 36 32 37 37 38
REMARK SMILES IDX 33 39 36 40 34 41 35 42 38 44 39 45 40 46 41 48 42 49 43 50
REMARK SMILES IDX 44 51 49 52 45 53 48 54 46 55 47 56 50 58 51 59 52 60
REMARK H PARENT 14 8 11 11 9 14 9 15 28 33 35 43 40 47 47 57 52 61
ROOT
ATOM      1  O   UNL     1      11.559 -12.371  -5.924  1.00  0.00    -0.272 OA
ATOM      2  C   UNL     1      11.690 -11.322  -5.276  1.00  0.00     0.245 C 
ENDROOT
BRANCH   2   3
ATOM      3  C   UNL     1      12.316 -11.399  -3.861  1.00  0.00     0.168 C 
ATOM      4  C   UNL     1      11.739 -12.572  -3.076  1.00  0.00     0.041 C 
BRANCH   3   5
ATOM      5  N   UNL     1      13.770 -11.392  -3.834  1.00  0.00    -0.342 N 
ATOM      6  C   UNL     1      14.488 -10.243  -3.577  1.00  0.00     0.251 C 
ATOM      7  O   UNL     1      13.968  -9.147  -3.395  1.00  0.00    -0.272 OA
ATOM      8  H   UNL     1      14.314 -12.235  -4.005  1.00  0.00     0.164 HD
BRANCH   6   9
ATOM      9  C   UNL     1      15.999 -10.500  -3.458  1.00  0.00     0.219 C 
BRANCH   9  10
ATOM     10  O   UNL     1      16.308 -11.881  -3.233  1.00  0.00    -0.382 OA
ATOM     11  H   UNL     1      16.979 -11.854  -2.517  1.00  0.00     0.211 HD
ENDBRANCH   9  10
BRANCH   9  12
ATOM     12  C   UNL     1      16.808  -9.942  -4.657  1.00  0.00     0.089 C 
BRANCH  12  13
ATOM     13  N   UNL     1      15.952  -9.997  -5.864  1.00  0.00    -0.325 NA
ATOM     14  H   UNL     1      14.974  -9.895  -5.587  1.00  0.00     0.119 HD
ATOM     15  H   UNL     1      16.018 -10.931  -6.274  1.00  0.00     0.119 HD
ENDBRANCH  12  13
BRANCH  12  16
ATOM     16  C   UNL     1      17.388  -8.518  -4.480  1.00  0.00     0.022 C 
BRANCH  16  17
ATOM     17  C   UNL     1      17.403  -7.563  -5.682  1.00  0.00     0.002 C 
BRANCH  17  18
ATOM     18  C   UNL     1      18.746  -7.455  -6.401  1.00  0.00     0.000 C 
BRANCH  18  19
ATOM     19  C   UNL     1      18.738  -8.021  -7.827  1.00  0.00    -0.000 C 
BRANCH  19  20
ATOM     20  C   UNL     1      17.350  -8.202  -8.447  1.00  0.00    -0.000 C 
BRANCH  20  21
ATOM     21  C   UNL     1      16.960  -7.058  -9.388  1.00  0.00    -0.003 C 
ATOM     22  C   UNL     1      18.002  -6.855 -10.476  1.00  0.00     0.004 C 
ENDBRANCH  20  21
ENDBRANCH  19  20
ENDBRANCH  18  19
ENDBRANCH  17  18
ENDBRANCH  16  17
ENDBRANCH  12  16
ENDBRANCH   9  12
ENDBRANCH   6   9
ENDBRANCH   3   5
ENDBRANCH   2   3
BRANCH   2  23
ATOM     23  N   UNL     1      11.394 -10.098  -5.866  1.00  0.00    -0.332 N 
ATOM     24  C   UNL     1      10.126  -9.398  -5.722  1.00  0.00     0.147 C 
BRANCH  23  25
ATOM     25  C   UNL     1      12.444  -9.346  -6.605  1.00  0.00     0.174 C 
BRANCH  25  26
ATOM     26  C   UNL     1      12.203  -7.818  -6.606  1.00  0.00     0.038 C 
BRANCH  26  27
ATOM     27  C   UNL     1      13.277  -6.940  -7.287  1.00  0.00    -0.015 C 
ATOM     28  C   UNL     1      12.704  -6.089  -8.419  1.00  0.00     0.007 C 
ATOM     29  C   UNL     1      14.063  -6.073  -6.307  1.00  0.00     0.007 C 
ENDBRANCH  26  27
ENDBRANCH  25  26
BRANCH  25  30
ATOM     30  C   UNL     1      12.635  -9.946  -8.017  1.00  0.00     0.243 C 
ATOM     31  O   UNL     1      11.722  -9.971  -8.841  1.00  0.00    -0.273 OA
ATOM     32  N   UNL     1      13.881 -10.451  -8.284  1.00  0.00    -0.342 N 
ATOM     33  H   UNL     1      14.623 -10.267  -7.604  1.00  0.00     0.164 HD
BRANCH  32  34
ATOM     34  C   UNL     1      14.234 -11.082  -9.559  1.00  0.00     0.175 C 
BRANCH  34  35
ATOM     35  C   UNL     1      15.047 -10.128 -10.448  1.00  0.00     0.070 C 
BRANCH  35  36
ATOM     36  C   UNL     1      14.178  -9.321 -11.386  1.00  0.00    -0.045 A 
ATOM     37  C   UNL     1      13.943  -7.962 -11.130  1.00  0.00     0.007 A 
ATOM     38  C   UNL     1      13.581  -9.917 -12.505  1.00  0.00     0.007 A 
ATOM     39  C   UNL     1      13.132  -7.212 -11.982  1.00  0.00     0.046 A 
ATOM     40  C   UNL     1      12.768  -9.168 -13.358  1.00  0.00     0.046 A 
ATOM     41  C   UNL     1      12.551  -7.820 -13.089  1.00  0.00     0.115 A 
BRANCH  41  42
ATOM     42  O   UNL     1      11.763  -7.053 -13.895  1.00  0.00    -0.508 OA
ATOM     43  H   UNL     1      11.910  -7.329 -14.815  1.00  0.00     0.293 HD
ENDBRANCH  41  42
ENDBRANCH  35  36
ENDBRANCH  34  35
BRANCH  34  44
ATOM     44  C   UNL     1      15.008 -12.384  -9.250  1.00  0.00     0.243 C 
ATOM     45  O   UNL     1      14.802 -13.460  -9.804  1.00  0.00    -0.273 OA
ATOM     46  N   UNL     1      15.879 -12.266  -8.188  1.00  0.00    -0.341 N 
ATOM     47  H   UNL     1      15.929 -11.383  -7.686  1.00  0.00     0.164 HD
BRANCH  46  48
ATOM     48  C   UNL     1      16.672 -13.383  -7.669  1.00  0.00     0.196 C 
BRANCH  48  49
ATOM     49  C   UNL     1      18.179 -13.122  -7.828  1.00  0.00     0.072 C 
BRANCH  49  50
ATOM     50  C   UNL     1      18.543 -12.642  -9.214  1.00  0.00    -0.045 A 
ATOM     51  C   UNL     1      18.366 -13.491 -10.317  1.00  0.00     0.007 A 
ATOM     52  C   UNL     1      19.077 -11.363  -9.417  1.00  0.00     0.007 A 
ATOM     53  C   UNL     1      18.711 -13.064 -11.599  1.00  0.00     0.046 A 
ATOM     54  C   UNL     1      19.424 -10.936 -10.701  1.00  0.00     0.046 A 
ATOM     55  C   UNL     1      19.236 -11.791 -11.782  1.00  0.00     0.115 A 
BRANCH  55  56
ATOM     56  O   UNL     1      19.562 -11.413 -13.051  1.00  0.00    -0.508 OA
ATOM     57  H   UNL     1      18.746 -11.360 -13.574  1.00  0.00     0.293 HD
ENDBRANCH  55  56
ENDBRANCH  49  50
ENDBRANCH  48  49
BRANCH  48  58
ATOM     58  C   UNL     1      16.338 -13.583  -6.184  1.00  0.00     0.326 C 
ATOM     59  O   UNL     1      17.016 -14.153  -5.344  1.00  0.00    -0.250 OA
BRANCH  58  60
ATOM     60  O   UNL     1      15.152 -13.035  -5.817  1.00  0.00    -0.480 OA
ATOM     61  H   UNL     1      14.894 -12.506  -6.603  1.00  0.00     0.296 HD
ENDBRANCH  58  60
ENDBRANCH  48  58
ENDBRANCH  46  48
ENDBRANCH  34  44
ENDBRANCH  32  34
ENDBRANCH  25  30
ENDBRANCH  23  25
ENDBRANCH   2  23
TORSDOF 28
ENDMDL
MODEL 5
REMARK VINA RESULT:    -4.517     24.029     28.425
REMARK INTER + INTRA:         -17.768
REMARK INTER:                 -13.283
REMARK INTRA:                  -4.484
REMARK UNBOUND:                -6.517
REMARK SMILES CCCCCCC[C@H](N)[C@H](O)C(=O)N[C@H](C)C(=O)N(C)[C@H](CC(C)C)C(=O)N[C@@H](Cc1ccc(O)cc1)C(=O)N[C@@H](Cc1ccc(O)cc1)C(=O)O
REMARK SMILES IDX 18 1 17 2 15 3 16 4 14 5 12 6 13 7 10 9 11 10 8 12 9 13 7 16
REMARK SMILES IDX 6 17 5 18 4 19 3 20 2 21 1 22 19 23 20 24 21 25 22 26 23 27
REMARK SMILES IDX 24 28 25 29 26 30 27 31 28 32 29 34 30 35 31 36 32 37 37 38
REMARK SMILES IDX 33 39 36 40 34 41 35 42 38 44 39 45 40 46 41 48 42 49 43 50
REMARK SMILES IDX 44 51 49 52 45 53 48 54 46 55 47 56 50 58 51 59 52 60
REMARK H PARENT 14 8 11 11 9 14 9 15 28 33 35 43 40 47 47 57 52 61
ROOT
ATOM      1  O   UNL     1      -3.612 -13.110  -0.120  1.00  0.00    -0.272 OA
ATOM      2  C   UNL     1      -2.732 -12.557   0.557  1.00  0.00     0.245 C 
ENDROOT
BRANCH   2   3
ATOM      3  C   UNL     1      -2.013 -11.318  -0.032  1.00  0.00     0.168 C 
ATOM      4  C   UNL     1      -1.916 -11.419  -1.550  1.00  0.00     0.041 C 
BRANCH   3   5
ATOM      5  N   UNL     1      -2.556 -10.037   0.393  1.00  0.00    -0.342 N 
ATOM      6  C   UNL     1      -1.781  -8.897   0.439  1.00  0.00     0.251 C 
ATOM      7  O   UNL     1      -0.584  -8.882   0.171  1.00  0.00    -0.272 OA
ATOM      8  H   UNL     1      -3.528  -9.933   0.673  1.00  0.00     0.164 HD
BRANCH   6   9
ATOM      9  C   UNL     1      -2.596  -7.638   0.778  1.00  0.00     0.219 C 
BRANCH   9  10
ATOM     10  O   UNL     1      -2.629  -7.363   2.183  1.00  0.00    -0.382 OA
ATOM     11  H   UNL     1      -1.869  -6.754   2.317  1.00  0.00     0.211 HD
ENDBRANCH   9  10
BRANCH   9  12
ATOM     12  C   UNL     1      -2.142  -6.387  -0.018  1.00  0.00     0.089 C 
BRANCH  12  13
ATOM     13  N   UNL     1      -3.314  -5.841  -0.740  1.00  0.00    -0.325 NA
ATOM     14  H   UNL     1      -4.166  -6.262  -0.363  1.00  0.00     0.119 HD
ATOM     15  H   UNL     1      -3.274  -6.146  -1.715  1.00  0.00     0.119 HD
ENDBRANCH  12  13
BRANCH  12  16
ATOM     16  C   UNL     1      -1.458  -5.270   0.806  1.00  0.00     0.022 C 
BRANCH  16  17
ATOM     17  C   UNL     1      -1.915  -3.817   0.620  1.00  0.00     0.002 C 
BRANCH  17  18
ATOM     18  C   UNL     1      -2.247  -3.075   1.913  1.00  0.00     0.000 C 
BRANCH  18  19
ATOM     19  C   UNL     1      -1.753  -3.781   3.183  1.00  0.00    -0.000 C 
BRANCH  19  20
ATOM     20  C   UNL     1      -0.748  -2.985   4.020  1.00  0.00    -0.000 C 
BRANCH  20  21
ATOM     21  C   UNL     1      -1.051  -3.028   5.520  1.00  0.00    -0.003 C 
ATOM     22  C   UNL     1      -2.509  -3.372   5.782  1.00  0.00     0.004 C 
ENDBRANCH  20  21
ENDBRANCH  19  20
ENDBRANCH  18  19
ENDBRANCH  17  18
ENDBRANCH  16  17
ENDBRANCH  12  16
ENDBRANCH   9  12
ENDBRANCH   6   9
ENDBRANCH   3   5
ENDBRANCH   2   3
BRANCH   2  23
ATOM     23  N   UNL     1      -2.493 -12.975   1.862  1.00  0.00    -0.332 N 
ATOM     24  C   UNL     1      -1.257 -13.594   2.317  1.00  0.00     0.147 C 
BRANCH  23  25
ATOM     25  C   UNL     1      -3.482 -12.686   2.936  1.00  0.00     0.174 C 
BRANCH  25  26
ATOM     26  C   UNL     1      -3.030 -11.547   3.880  1.00  0.00     0.038 C 
BRANCH  26  27
ATOM     27  C   UNL     1      -4.033 -10.397   4.120  1.00  0.00    -0.015 C 
ATOM     28  C   UNL     1      -4.964 -10.176   2.929  1.00  0.00     0.007 C 
ATOM     29  C   UNL     1      -4.838 -10.552   5.409  1.00  0.00     0.007 C 
ENDBRANCH  26  27
ENDBRANCH  25  26
BRANCH  25  30
ATOM     30  C   UNL     1      -3.863 -13.990   3.674  1.00  0.00     0.243 C 
ATOM     31  O   UNL     1      -4.264 -14.985   3.071  1.00  0.00    -0.273 OA
ATOM     32  N   UNL     1      -3.730 -13.961   5.038  1.00  0.00    -0.342 N 
ATOM     33  H   UNL     1      -3.258 -13.152   5.451  1.00  0.00     0.164 HD
BRANCH  32  34
ATOM     34  C   UNL     1      -4.070 -15.095   5.902  1.00  0.00     0.175 C 
BRANCH  34  35
ATOM     35  C   UNL     1      -3.364 -14.992   7.263  1.00  0.00     0.070 C 
BRANCH  35  36
ATOM     36  C   UNL     1      -2.434 -13.803   7.351  1.00  0.00    -0.045 A 
ATOM     37  C   UNL     1      -1.062 -13.967   7.106  1.00  0.00     0.007 A 
ATOM     38  C   UNL     1      -2.918 -12.536   7.698  1.00  0.00     0.007 A 
ATOM     39  C   UNL     1      -0.193 -12.879   7.198  1.00  0.00     0.046 A 
ATOM     40  C   UNL     1      -2.049 -11.446   7.792  1.00  0.00     0.046 A 
ATOM     41  C   UNL     1      -0.693 -11.628   7.540  1.00  0.00     0.115 A 
BRANCH  41  42
ATOM     42  O   UNL     1       0.189 -10.592   7.622  1.00  0.00    -0.508 OA
ATOM     43  H   UNL     1       0.457 -10.347   6.721  1.00  0.00     0.293 HD
ENDBRANCH  41  42
ENDBRANCH  35  36
ENDBRANCH  34  35
BRANCH  34  44
ATOM     44  C   UNL     1      -5.607 -15.139   6.050  1.00  0.00     0.243 C 
ATOM     45  O   UNL     1      -6.308 -16.093   5.723  1.00  0.00    -0.273 OA
ATOM     46  N   UNL     1      -6.153 -13.945   6.469  1.00  0.00    -0.341 N 
ATOM     47  H   UNL     1      -5.540 -13.146   6.616  1.00  0.00     0.164 HD
BRANCH  46  48
ATOM     48  C   UNL     1      -7.593 -13.725   6.618  1.00  0.00     0.196 C 
BRANCH  48  49
ATOM     49  C   UNL     1      -7.993 -13.615   8.099  1.00  0.00     0.072 C 
BRANCH  49  50
ATOM     50  C   UNL     1      -6.824 -13.273   8.994  1.00  0.00    -0.045 A 
ATOM     51  C   UNL     1      -6.116 -14.297   9.641  1.00  0.00     0.007 A 
ATOM     52  C   UNL     1      -6.444 -11.942   9.207  1.00  0.00     0.007 A 
ATOM     53  C   UNL     1      -5.044 -13.992  10.479  1.00  0.00     0.046 A 
ATOM     54  C   UNL     1      -5.371 -11.637  10.047  1.00  0.00     0.046 A 
ATOM     55  C   UNL     1      -4.679 -12.666  10.676  1.00  0.00     0.115 A 
BRANCH  55  56
ATOM     56  O   UNL     1      -3.626 -12.411  11.504  1.00  0.00    -0.508 OA
ATOM     57  H   UNL     1      -2.892 -12.071  10.970  1.00  0.00     0.293 HD
ENDBRANCH  55  56
ENDBRANCH  49  50
ENDBRANCH  48  49
BRANCH  48  58
ATOM     58  C   UNL     1      -7.979 -12.433   5.884  1.00  0.00     0.326 C 
ATOM     59  O   UNL     1      -8.478 -11.430   6.366  1.00  0.00    -0.250 OA
BRANCH  58  60
ATOM     60  O   UNL     1      -7.701 -12.462   4.556  1.00  0.00    -0.480 OA
ATOM     61  H   UNL     1      -8.494 -12.889   4.167  1.00  0.00     0.296 HD
ENDBRANCH  58  60
ENDBRANCH  48  58
ENDBRANCH  46  48
ENDBRANCH  34  44
ENDBRANCH  32  34
ENDBRANCH  25  30
ENDBRANCH  23  25
ENDBRANCH   2  23
TORSDOF 28
ENDMDL
MODEL 6
REMARK VINA RESULT:    -4.482     23.734     27.732
REMARK INTER + INTRA:         -17.681
REMARK INTER:                 -10.683
REMARK INTRA:                  -6.998
REMARK UNBOUND:                -6.517
REMARK SMILES CCCCCCC[C@H](N)[C@H](O)C(=O)N[C@H](C)C(=O)N(C)[C@H](CC(C)C)C(=O)N[C@@H](Cc1ccc(O)cc1)C(=O)N[C@@H](Cc1ccc(O)cc1)C(=O)O
REMARK SMILES IDX 18 1 17 2 15 3 16 4 14 5 12 6 13 7 10 9 11 10 8 12 9 13 7 16
REMARK SMILES IDX 6 17 5 18 4 19 3 20 2 21 1 22 19 23 20 24 21 25 22 26 23 27
REMARK SMILES IDX 24 28 25 29 26 30 27 31 28 32 29 34 30 35 31 36 32 37 37 38
REMARK SMILES IDX 33 39 36 40 34 41 35 42 38 44 39 45 40 46 41 48 42 49 43 50
REMARK SMILES IDX 44 51 49 52 45 53 48 54 46 55 47 56 50 58 51 59 52 60
REMARK H PARENT 14 8 11 11 9 14 9 15 28 33 35 43 40 47 47 57 52 61
ROOT
ATOM      1  O   UNL     1      -6.756 -15.376   4.022  1.00  0.00    -0.272 OA
ATOM      2  C   UNL     1      -6.530 -14.157   4.046  1.00  0.00     0.245 C 
ENDROOT
BRANCH   2   3
ATOM      3  C   UNL     1      -5.493 -13.616   5.063  1.00  0.00     0.168 C 
ATOM      4  C   UNL     1      -5.790 -14.132   6.466  1.00  0.00     0.041 C 
BRANCH   3   5
ATOM      5  N   UNL     1      -4.103 -13.828   4.690  1.00  0.00    -0.342 N 
ATOM      6  C   UNL     1      -3.254 -12.777   4.416  1.00  0.00     0.251 C 
ATOM      7  O   UNL     1      -3.607 -11.602   4.424  1.00  0.00    -0.272 OA
ATOM      8  H   UNL     1      -3.705 -14.761   4.616  1.00  0.00     0.164 HD
BRANCH   6   9
ATOM      9  C   UNL     1      -1.803 -13.229   4.186  1.00  0.00     0.219 C 
BRANCH   9  10
ATOM     10  O   UNL     1      -1.297 -14.029   5.261  1.00  0.00    -0.382 OA
ATOM     11  H   UNL     1      -1.325 -14.943   4.902  1.00  0.00     0.211 HD
ENDBRANCH   9  10
BRANCH   9  12
ATOM     12  C   UNL     1      -1.596 -13.941   2.824  1.00  0.00     0.089 C 
BRANCH  12  13
ATOM     13  N   UNL     1      -2.894 -13.974   2.111  1.00  0.00    -0.325 NA
ATOM     14  H   UNL     1      -3.366 -14.857   2.313  1.00  0.00     0.119 HD
ATOM     15  H   UNL     1      -2.718 -13.989   1.104  1.00  0.00     0.119 HD
ENDBRANCH  12  13
BRANCH  12  16
ATOM     16  C   UNL     1      -0.501 -13.346   1.907  1.00  0.00     0.022 C 
BRANCH  16  17
ATOM     17  C   UNL     1       0.873 -13.011   2.505  1.00  0.00     0.002 C 
BRANCH  17  18
ATOM     18  C   UNL     1       1.854 -12.354   1.537  1.00  0.00     0.000 C 
BRANCH  18  19
ATOM     19  C   UNL     1       2.111 -10.868   1.821  1.00  0.00    -0.000 C 
BRANCH  19  20
ATOM     20  C   UNL     1       3.515 -10.371   1.466  1.00  0.00    -0.000 C 
BRANCH  20  21
ATOM     21  C   UNL     1       3.709  -8.877   1.737  1.00  0.00    -0.003 C 
ATOM     22  C   UNL     1       3.802  -8.086   0.441  1.00  0.00     0.004 C 
ENDBRANCH  20  21
ENDBRANCH  19  20
ENDBRANCH  18  19
ENDBRANCH  17  18
ENDBRANCH  16  17
ENDBRANCH  12  16
ENDBRANCH   9  12
ENDBRANCH   6   9
ENDBRANCH   3   5
ENDBRANCH   2   3
BRANCH   2  23
ATOM     23  N   UNL     1      -7.107 -13.323   3.095  1.00  0.00    -0.332 N 
ATOM     24  C   UNL     1      -7.764 -13.785   1.881  1.00  0.00     0.147 C 
BRANCH  23  25
ATOM     25  C   UNL     1      -7.201 -11.857   3.339  1.00  0.00     0.174 C 
BRANCH  25  26
ATOM     26  C   UNL     1      -8.647 -11.383   3.614  1.00  0.00     0.038 C 
BRANCH  26  27
ATOM     27  C   UNL     1      -8.900 -10.644   4.947  1.00  0.00    -0.015 C 
ATOM     28  C   UNL     1      -7.825 -10.941   5.993  1.00  0.00     0.007 C 
ATOM     29  C   UNL     1      -9.086  -9.138   4.781  1.00  0.00     0.007 C 
ENDBRANCH  26  27
ENDBRANCH  25  26
BRANCH  25  30
ATOM     30  C   UNL     1      -6.500 -11.083   2.199  1.00  0.00     0.243 C 
ATOM     31  O   UNL     1      -7.082 -10.217   1.547  1.00  0.00    -0.273 OA
ATOM     32  N   UNL     1      -5.194 -11.429   1.962  1.00  0.00    -0.342 N 
ATOM     33  H   UNL     1      -4.740 -12.052   2.634  1.00  0.00     0.164 HD
BRANCH  32  34
ATOM     34  C   UNL     1      -4.383 -10.820   0.905  1.00  0.00     0.175 C 
BRANCH  34  35
ATOM     35  C   UNL     1      -2.905 -10.733   1.315  1.00  0.00     0.070 C 
BRANCH  35  36
ATOM     36  C   UNL     1      -2.240  -9.461   0.839  1.00  0.00    -0.045 A 
ATOM     37  C   UNL     1      -1.051  -9.525   0.097  1.00  0.00     0.007 A 
ATOM     38  C   UNL     1      -2.783  -8.207   1.148  1.00  0.00     0.007 A 
ATOM     39  C   UNL     1      -0.423  -8.357  -0.334  1.00  0.00     0.046 A 
ATOM     40  C   UNL     1      -2.154  -7.036   0.718  1.00  0.00     0.046 A 
ATOM     41  C   UNL     1      -0.979  -7.122  -0.022  1.00  0.00     0.115 A 
BRANCH  41  42
ATOM     42  O   UNL     1      -0.332  -6.005  -0.460  1.00  0.00    -0.508 OA
ATOM     43  H   UNL     1      -0.932  -5.247  -0.359  1.00  0.00     0.293 HD
ENDBRANCH  41  42
ENDBRANCH  35  36
ENDBRANCH  34  35
BRANCH  34  44
ATOM     44  C   UNL     1      -4.576 -11.649  -0.385  1.00  0.00     0.243 C 
ATOM     45  O   UNL     1      -5.498 -11.491  -1.180  1.00  0.00    -0.273 OA
ATOM     46  N   UNL     1      -3.681 -12.691  -0.507  1.00  0.00    -0.341 N 
ATOM     47  H   UNL     1      -3.007 -12.853   0.238  1.00  0.00     0.164 HD
BRANCH  46  48
ATOM     48  C   UNL     1      -3.710 -13.654  -1.610  1.00  0.00     0.196 C 
BRANCH  48  49
ATOM     49  C   UNL     1      -2.300 -14.173  -1.938  1.00  0.00     0.072 C 
BRANCH  49  50
ATOM     50  C   UNL     1      -1.339 -13.060  -2.289  1.00  0.00    -0.045 A 
ATOM     51  C   UNL     1      -1.683 -12.123  -3.275  1.00  0.00     0.007 A 
ATOM     52  C   UNL     1      -0.092 -12.958  -1.658  1.00  0.00     0.007 A 
ATOM     53  C   UNL     1      -0.798 -11.100  -3.617  1.00  0.00     0.046 A 
ATOM     54  C   UNL     1       0.794 -11.935  -2.001  1.00  0.00     0.046 A 
ATOM     55  C   UNL     1       0.432 -11.013  -2.977  1.00  0.00     0.115 A 
BRANCH  55  56
ATOM     56  O   UNL     1       1.269 -10.000  -3.342  1.00  0.00    -0.508 OA
ATOM     57  H   UNL     1       1.557  -9.537  -2.539  1.00  0.00     0.293 HD
ENDBRANCH  55  56
ENDBRANCH  49  50
ENDBRANCH  48  49
BRANCH  48  58
ATOM     58  C   UNL     1      -4.614 -14.832  -1.220  1.00  0.00     0.326 C 
ATOM     59  O   UNL     1      -4.848 -15.243  -0.095  1.00  0.00    -0.250 OA
BRANCH  58  60
ATOM     60  O   UNL     1      -5.201 -15.439  -2.282  1.00  0.00    -0.480 OA
ATOM     61  H   UNL     1      -5.805 -14.748  -2.631  1.00  0.00     0.296 HD
ENDBRANCH  58  60
ENDBRANCH  48  58
ENDBRANCH  46  48
ENDBRANCH  34  44
ENDBRANCH  32  34
ENDBRANCH  25  30
ENDBRANCH  23  25
ENDBRANCH   2  23
TORSDOF 28
ENDMDL
MODEL 7
REMARK VINA RESULT:    -4.447      5.284     11.148
REMARK INTER + INTRA:         -17.594
REMARK INTER:                 -13.951
REMARK INTRA:                  -3.642
REMARK UNBOUND:                -6.517
REMARK SMILES CCCCCCC[C@H](N)[C@H](O)C(=O)N[C@H](C)C(=O)N(C)[C@H](CC(C)C)C(=O)N[C@@H](Cc1ccc(O)cc1)C(=O)N[C@@H](Cc1ccc(O)cc1)C(=O)O
REMARK SMILES IDX 18 1 17 2 15 3 16 4 14 5 12 6 13 7 10 9 11 10 8 12 9 13 7 16
REMARK SMILES IDX 6 17 5 18 4 19 3 20 2 21 1 22 19 23 20 24 21 25 22 26 23 27
REMARK SMILES IDX 24 28 25 29 26 30 27 31 28 32 29 34 30 35 31 36 32 37 37 38
REMARK SMILES IDX 33 39 36 40 34 41 35 42 38 44 39 45 40 46 41 48 42 49 43 50
REMARK SMILES IDX 44 51 49 52 45 53 48 54 46 55 47 56 50 58 51 59 52 60
REMARK H PARENT 14 8 11 11 9 14 9 15 28 33 35 43 40 47 47 57 52 61
ROOT
ATOM      1  O   UNL     1       8.110  11.009   0.875  1.00  0.00    -0.272 OA
ATOM      2  C   UNL     1       8.351   9.884   1.336  1.00  0.00     0.245 C 
ENDROOT
BRANCH   2   3
ATOM      3  C   UNL     1       7.241   9.159   2.138  1.00  0.00     0.168 C 
ATOM      4  C   UNL     1       7.831   8.038   2.987  1.00  0.00     0.041 C 
BRANCH   3   5
ATOM      5  N   UNL     1       6.380  10.034   2.918  1.00  0.00    -0.342 N 
ATOM      6  C   UNL     1       5.050   9.743   3.133  1.00  0.00     0.251 C 
ATOM      7  O   UNL     1       4.486   8.762   2.658  1.00  0.00    -0.272 OA
ATOM      8  H   UNL     1       6.726  10.895   3.334  1.00  0.00     0.164 HD
BRANCH   6   9
ATOM      9  C   UNL     1       4.374  10.729   4.100  1.00  0.00     0.219 C 
BRANCH   9  10
ATOM     10  O   UNL     1       3.231  11.372   3.523  1.00  0.00    -0.382 OA
ATOM     11  H   UNL     1       2.701  10.625   3.168  1.00  0.00     0.211 HD
ENDBRANCH   9  10
BRANCH   9  12
ATOM     12  C   UNL     1       4.016  10.092   5.468  1.00  0.00     0.089 C 
BRANCH  12  13
ATOM     13  N   UNL     1       2.818   9.241   5.288  1.00  0.00    -0.325 NA
ATOM     14  H   UNL     1       2.638   9.120   4.289  1.00  0.00     0.119 HD
ATOM     15  H   UNL     1       2.001   9.739   5.648  1.00  0.00     0.119 HD
ENDBRANCH  12  13
BRANCH  12  16
ATOM     16  C   UNL     1       5.143   9.284   6.155  1.00  0.00     0.022 C 
BRANCH  16  17
ATOM     17  C   UNL     1       5.073   7.751   6.152  1.00  0.00     0.002 C 
BRANCH  17  18
ATOM     18  C   UNL     1       6.036   7.059   7.114  1.00  0.00     0.000 C 
BRANCH  18  19
ATOM     19  C   UNL     1       7.517   7.303   6.798  1.00  0.00    -0.000 C 
BRANCH  19  20
ATOM     20  C   UNL     1       8.270   6.094   6.237  1.00  0.00    -0.000 C 
BRANCH  20  21
ATOM     21  C   UNL     1       7.345   5.059   5.592  1.00  0.00    -0.003 C 
ATOM     22  C   UNL     1       7.138   3.857   6.501  1.00  0.00     0.004 C 
ENDBRANCH  20  21
ENDBRANCH  19  20
ENDBRANCH  18  19
ENDBRANCH  17  18
ENDBRANCH  16  17
ENDBRANCH  12  16
ENDBRANCH   9  12
ENDBRANCH   6   9
ENDBRANCH   3   5
ENDBRANCH   2   3
BRANCH   2  23
ATOM     23  N   UNL     1       9.549   9.247   1.028  1.00  0.00    -0.332 N 
ATOM     24  C   UNL     1       9.728   8.311  -0.072  1.00  0.00     0.147 C 
BRANCH  23  25
ATOM     25  C   UNL     1      10.796   9.599   1.761  1.00  0.00     0.174 C 
BRANCH  25  26
ATOM     26  C   UNL     1      10.557  10.614   2.904  1.00  0.00     0.038 C 
BRANCH  26  27
ATOM     27  C   UNL     1      11.411  10.443   4.180  1.00  0.00    -0.015 C 
ATOM     28  C   UNL     1      11.018  11.428   5.281  1.00  0.00     0.007 C 
ATOM     29  C   UNL     1      11.422   9.014   4.717  1.00  0.00     0.007 C 
ENDBRANCH  26  27
ENDBRANCH  25  26
BRANCH  25  30
ATOM     30  C   UNL     1      11.894  10.035   0.763  1.00  0.00     0.243 C 
ATOM     31  O   UNL     1      11.778  11.042   0.068  1.00  0.00    -0.273 OA
ATOM     32  N   UNL     1      12.997   9.222   0.703  1.00  0.00    -0.342 N 
ATOM     33  H   UNL     1      13.083   8.487   1.409  1.00  0.00     0.164 HD
BRANCH  32  34
ATOM     34  C   UNL     1      14.122   9.463  -0.204  1.00  0.00     0.175 C 
BRANCH  34  35
ATOM     35  C   UNL     1      15.463   9.409   0.544  1.00  0.00     0.070 C 
BRANCH  35  36
ATOM     36  C   UNL     1      15.321   9.690   2.023  1.00  0.00    -0.045 A 
ATOM     37  C   UNL     1      15.424   8.641   2.950  1.00  0.00     0.007 A 
ATOM     38  C   UNL     1      15.062  10.986   2.487  1.00  0.00     0.007 A 
ATOM     39  C   UNL     1      15.280   8.889   4.315  1.00  0.00     0.046 A 
ATOM     40  C   UNL     1      14.916  11.235   3.854  1.00  0.00     0.046 A 
ATOM     41  C   UNL     1      15.028  10.182   4.756  1.00  0.00     0.115 A 
BRANCH  41  42
ATOM     42  O   UNL     1      14.890  10.381   6.098  1.00  0.00    -0.508 OA
ATOM     43  H   UNL     1      14.060   9.965   6.384  1.00  0.00     0.293 HD
ENDBRANCH  41  42
ENDBRANCH  35  36
ENDBRANCH  34  35
BRANCH  34  44
ATOM     44  C   UNL     1      14.053   8.421  -1.342  1.00  0.00     0.243 C 
ATOM     45  O   UNL     1      13.097   7.678  -1.545  1.00  0.00    -0.273 OA
ATOM     46  N   UNL     1      15.231   8.300  -2.048  1.00  0.00    -0.341 N 
ATOM     47  H   UNL     1      16.035   8.856  -1.767  1.00  0.00     0.164 HD
BRANCH  46  48
ATOM     48  C   UNL     1      15.428   7.330  -3.128  1.00  0.00     0.196 C 
BRANCH  48  49
ATOM     49  C   UNL     1      15.920   8.015  -4.414  1.00  0.00     0.072 C 
BRANCH  49  50
ATOM     50  C   UNL     1      15.293   7.433  -5.660  1.00  0.00    -0.045 A 
ATOM     51  C   UNL     1      14.491   8.239  -6.481  1.00  0.00     0.007 A 
ATOM     52  C   UNL     1      15.483   6.088  -6.001  1.00  0.00     0.007 A 
ATOM     53  C   UNL     1      13.896   7.709  -7.626  1.00  0.00     0.046 A 
ATOM     54  C   UNL     1      14.887   5.557  -7.147  1.00  0.00     0.046 A 
ATOM     55  C   UNL     1      14.099   6.373  -7.951  1.00  0.00     0.115 A 
BRANCH  55  56
ATOM     56  O   UNL     1      13.499   5.893  -9.078  1.00  0.00    -0.508 OA
ATOM     57  H   UNL     1      14.114   6.000  -9.821  1.00  0.00     0.293 HD
ENDBRANCH  55  56
ENDBRANCH  49  50
ENDBRANCH  48  49
BRANCH  48  58
ATOM     58  C   UNL     1      16.455   6.283  -2.677  1.00  0.00     0.326 C 
ATOM     59  O   UNL     1      17.648   6.453  -2.482  1.00  0.00    -0.250 OA
BRANCH  58  60
ATOM     60  O   UNL     1      15.921   5.052  -2.475  1.00  0.00    -0.480 OA
ATOM     61  H   UNL     1      16.709   4.484  -2.332  1.00  0.00     0.296 HD
ENDBRANCH  58  60
ENDBRANCH  48  58
ENDBRANCH  46  48
ENDBRANCH  34  44
ENDBRANCH  32  34
ENDBRANCH  25  30
ENDBRANCH  23  25
ENDBRANCH   2  23
TORSDOF 28
ENDMDL
MODEL 8
REMARK VINA RESULT:    -4.372     24.411     28.773
REMARK INTER + INTRA:         -17.407
REMARK INTER:                 -14.104
REMARK INTRA:                  -3.303
REMARK UNBOUND:                -6.517
REMARK SMILES CCCCCCC[C@H](N)[C@H](O)C(=O)N[C@H](C)C(=O)N(C)[C@H](CC(C)C)C(=O)N[C@@H](Cc1ccc(O)cc1)C(=O)N[C@@H](Cc1ccc(O)cc1)C(=O)O
REMARK SMILES IDX 18 1 17 2 15 3 16 4 14 5 12 6 13 7 10 9 11 10 8 12 9 13 7 16
REMARK SMILES IDX 6 17 5 18 4 19 3 20 2 21 1 22 19 23 20 24 21 25 22 26 23 27
REMARK SMILES IDX 24 28 25 29 26 30 27 31 28 32 29 34 30 35 31 36 32 37 37 38
REMARK SMILES IDX 33 39 36 40 34 41 35 42 38 44 39 45 40 46 41 48 42 49 43 50
REMARK SMILES IDX 44 51 49 52 45 53 48 54 46 55 47 56 50 58 51 59 52 60
REMARK H PARENT 14 8 11 11 9 14 9 15 28 33 35 43 40 47 47 57 52 61
ROOT
ATOM      1  O   UNL     1      -2.072 -11.087   2.855  1.00  0.00    -0.272 OA
ATOM      2  C   UNL     1      -2.698 -11.272   1.801  1.00  0.00     0.245 C 
ENDROOT
BRANCH   2   3
ATOM      3  C   UNL     1      -3.830 -10.284   1.428  1.00  0.00     0.168 C 
ATOM      4  C   UNL     1      -4.586  -9.831   2.672  1.00  0.00     0.041 C 
BRANCH   3   5
ATOM      5  N   UNL     1      -3.413  -9.158   0.607  1.00  0.00    -0.342 N 
ATOM      6  C   UNL     1      -2.878  -8.013   1.160  1.00  0.00     0.251 C 
ATOM      7  O   UNL     1      -2.754  -7.839   2.367  1.00  0.00    -0.272 OA
ATOM      8  H   UNL     1      -3.500  -9.171  -0.406  1.00  0.00     0.164 HD
BRANCH   6   9
ATOM      9  C   UNL     1      -2.378  -7.019   0.100  1.00  0.00     0.219 C 
BRANCH   9  10
ATOM     10  O   UNL     1      -3.448  -6.396  -0.622  1.00  0.00    -0.382 OA
ATOM     11  H   UNL     1      -3.108  -6.347  -1.543  1.00  0.00     0.211 HD
ENDBRANCH   9  10
BRANCH   9  12
ATOM     12  C   UNL     1      -1.407  -5.954   0.673  1.00  0.00     0.089 C 
BRANCH  12  13
ATOM     13  N   UNL     1      -0.437  -5.588  -0.384  1.00  0.00    -0.325 NA
ATOM     14  H   UNL     1      -0.520  -4.590  -0.585  1.00  0.00     0.119 HD
ATOM     15  H   UNL     1      -0.701  -6.059  -1.253  1.00  0.00     0.119 HD
ENDBRANCH  12  13
BRANCH  12  16
ATOM     16  C   UNL     1      -2.065  -4.679   1.255  1.00  0.00     0.022 C 
BRANCH  16  17
ATOM     17  C   UNL     1      -1.477  -3.307   0.900  1.00  0.00     0.002 C 
BRANCH  17  18
ATOM     18  C   UNL     1      -0.903  -2.527   2.082  1.00  0.00     0.000 C 
BRANCH  18  19
ATOM     19  C   UNL     1      -1.613  -2.801   3.414  1.00  0.00    -0.000 C 
BRANCH  19  20
ATOM     20  C   UNL     1      -0.686  -3.117   4.592  1.00  0.00    -0.000 C 
BRANCH  20  21
ATOM     21  C   UNL     1      -1.425  -3.711   5.794  1.00  0.00    -0.003 C 
ATOM     22  C   UNL     1      -2.816  -3.115   5.939  1.00  0.00     0.004 C 
ENDBRANCH  20  21
ENDBRANCH  19  20
ENDBRANCH  18  19
ENDBRANCH  17  18
ENDBRANCH  16  17
ENDBRANCH  12  16
ENDBRANCH   9  12
ENDBRANCH   6   9
ENDBRANCH   3   5
ENDBRANCH   2   3
BRANCH   2  23
ATOM     23  N   UNL     1      -2.300 -12.275   0.923  1.00  0.00    -0.332 N 
ATOM     24  C   UNL     1      -1.151 -12.187   0.034  1.00  0.00     0.147 C 
BRANCH  23  25
ATOM     25  C   UNL     1      -2.982 -13.599   0.936  1.00  0.00     0.174 C 
BRANCH  25  26
ATOM     26  C   UNL     1      -4.175 -13.671  -0.045  1.00  0.00     0.038 C 
BRANCH  26  27
ATOM     27  C   UNL     1      -3.842 -13.908  -1.535  1.00  0.00    -0.015 C 
ATOM     28  C   UNL     1      -4.478 -15.186  -2.080  1.00  0.00     0.007 C 
ATOM     29  C   UNL     1      -4.178 -12.717  -2.430  1.00  0.00     0.007 C 
ENDBRANCH  26  27
ENDBRANCH  25  26
BRANCH  25  30
ATOM     30  C   UNL     1      -3.344 -13.996   2.386  1.00  0.00     0.243 C 
ATOM     31  O   UNL     1      -2.692 -14.828   3.014  1.00  0.00    -0.273 OA
ATOM     32  N   UNL     1      -4.440 -13.367   2.917  1.00  0.00    -0.342 N 
ATOM     33  H   UNL     1      -4.843 -12.589   2.387  1.00  0.00     0.164 HD
BRANCH  32  34
ATOM     34  C   UNL     1      -4.946 -13.638   4.265  1.00  0.00     0.175 C 
BRANCH  34  35
ATOM     35  C   UNL     1      -4.255 -12.749   5.311  1.00  0.00     0.070 C 
BRANCH  35  36
ATOM     36  C   UNL     1      -3.607 -13.546   6.420  1.00  0.00    -0.045 A 
ATOM     37  C   UNL     1      -3.861 -14.921   6.536  1.00  0.00     0.007 A 
ATOM     38  C   UNL     1      -2.769 -12.926   7.355  1.00  0.00     0.007 A 
ATOM     39  C   UNL     1      -3.279 -15.663   7.565  1.00  0.00     0.046 A 
ATOM     40  C   UNL     1      -2.186 -13.668   8.386  1.00  0.00     0.046 A 
ATOM     41  C   UNL     1      -2.446 -15.031   8.481  1.00  0.00     0.115 A 
BRANCH  41  42
ATOM     42  O   UNL     1      -1.899 -15.791   9.472  1.00  0.00    -0.508 OA
ATOM     43  H   UNL     1      -1.773 -15.227  10.253  1.00  0.00     0.293 HD
ENDBRANCH  41  42
ENDBRANCH  35  36
ENDBRANCH  34  35
BRANCH  34  44
ATOM     44  C   UNL     1      -6.477 -13.432   4.253  1.00  0.00     0.243 C 
ATOM     45  O   UNL     1      -7.236 -13.916   3.418  1.00  0.00    -0.273 OA
ATOM     46  N   UNL     1      -6.918 -12.533   5.202  1.00  0.00    -0.341 N 
ATOM     47  H   UNL     1      -6.236 -12.068   5.796  1.00  0.00     0.164 HD
BRANCH  46  48
ATOM     48  C   UNL     1      -8.318 -12.126   5.337  1.00  0.00     0.196 C 
BRANCH  48  49
ATOM     49  C   UNL     1      -8.709 -11.947   6.814  1.00  0.00     0.072 C 
BRANCH  49  50
ATOM     50  C   UNL     1      -7.870 -12.794   7.744  1.00  0.00    -0.045 A 
ATOM     51  C   UNL     1      -6.762 -12.232   8.394  1.00  0.00     0.007 A 
ATOM     52  C   UNL     1      -8.170 -14.146   7.954  1.00  0.00     0.007 A 
ATOM     53  C   UNL     1      -5.974 -13.007   9.245  1.00  0.00     0.046 A 
ATOM     54  C   UNL     1      -7.380 -14.923   8.805  1.00  0.00     0.046 A 
ATOM     55  C   UNL     1      -6.288 -14.346   9.444  1.00  0.00     0.115 A 
BRANCH  55  56
ATOM     56  O   UNL     1      -5.491 -15.069  10.281  1.00  0.00    -0.508 OA
ATOM     57  H   UNL     1      -5.486 -15.991   9.978  1.00  0.00     0.293 HD
ENDBRANCH  55  56
ENDBRANCH  49  50
ENDBRANCH  48  49
BRANCH  48  58
ATOM     58  C   UNL     1      -8.528 -10.804   4.586  1.00  0.00     0.326 C 
ATOM     59  O   UNL     1      -9.382 -10.558   3.749  1.00  0.00    -0.250 OA
BRANCH  58  60
ATOM     60  O   UNL     1      -7.649  -9.834   4.940  1.00  0.00    -0.480 OA
ATOM     61  H   UNL     1      -7.335 -10.125   5.823  1.00  0.00     0.296 HD
ENDBRANCH  58  60
ENDBRANCH  48  58
ENDBRANCH  46  48
ENDBRANCH  34  44
ENDBRANCH  32  34
ENDBRANCH  25  30
ENDBRANCH  23  25
ENDBRANCH   2  23
TORSDOF 28
ENDMDL
MODEL 9
REMARK VINA RESULT:    -4.363     12.065     17.127
REMARK INTER + INTRA:         -17.384
REMARK INTER:                 -11.029
REMARK INTRA:                  -6.355
REMARK UNBOUND:                -6.517
REMARK SMILES CCCCCCC[C@H](N)[C@H](O)C(=O)N[C@H](C)C(=O)N(C)[C@H](CC(C)C)C(=O)N[C@@H](Cc1ccc(O)cc1)C(=O)N[C@@H](Cc1ccc(O)cc1)C(=O)O
REMARK SMILES IDX 18 1 17 2 15 3 16 4 14 5 12 6 13 7 10 9 11 10 8 12 9 13 7 16
REMARK SMILES IDX 6 17 5 18 4 19 3 20 2 21 1 22 19 23 20 24 21 25 22 26 23 27
REMARK SMILES IDX 24 28 25 29 26 30 27 31 28 32 29 34 30 35 31 36 32 37 37 38
REMARK SMILES IDX 33 39 36 40 34 41 35 42 38 44 39 45 40 46 41 48 42 49 43 50
REMARK SMILES IDX 44 51 49 52 45 53 48 54 46 55 47 56 50 58 51 59 52 60
REMARK H PARENT 14 8 11 11 9 14 9 15 28 33 35 43 40 47 47 57 52 61
ROOT
ATOM      1  O   UNL     1      12.857  -9.950  -4.236  1.00  0.00    -0.272 OA
ATOM      2  C   UNL     1      13.906  -9.310  -4.406  1.00  0.00     0.245 C 
ENDROOT
BRANCH   2   3
ATOM      3  C   UNL     1      13.806  -7.810  -4.780  1.00  0.00     0.168 C 
ATOM      4  C   UNL     1      12.881  -7.610  -5.974  1.00  0.00     0.041 C 
BRANCH   3   5
ATOM      5  N   UNL     1      13.466  -6.926  -3.676  1.00  0.00    -0.342 N 
ATOM      6  C   UNL     1      14.299  -5.902  -3.280  1.00  0.00     0.251 C 
ATOM      7  O   UNL     1      15.393  -5.683  -3.790  1.00  0.00    -0.272 OA
ATOM      8  H   UNL     1      12.600  -7.031  -3.152  1.00  0.00     0.164 HD
BRANCH   6   9
ATOM      9  C   UNL     1      13.673  -5.013  -2.193  1.00  0.00     0.219 C 
BRANCH   9  10
ATOM     10  O   UNL     1      12.305  -4.687  -2.466  1.00  0.00    -0.382 OA
ATOM     11  H   UNL     1      12.013  -4.217  -1.654  1.00  0.00     0.211 HD
ENDBRANCH   9  10
BRANCH   9  12
ATOM     12  C   UNL     1      13.826  -5.599  -0.765  1.00  0.00     0.089 C 
BRANCH  12  13
ATOM     13  N   UNL     1      13.307  -6.986  -0.771  1.00  0.00    -0.325 NA
ATOM     14  H   UNL     1      13.467  -7.400  -1.691  1.00  0.00     0.119 HD
ATOM     15  H   UNL     1      12.290  -6.959  -0.664  1.00  0.00     0.119 HD
ENDBRANCH  12  13
BRANCH  12  16
ATOM     16  C   UNL     1      15.253  -5.568  -0.168  1.00  0.00     0.022 C 
BRANCH  16  17
ATOM     17  C   UNL     1      15.639  -4.430   0.786  1.00  0.00     0.002 C 
BRANCH  17  18
ATOM     18  C   UNL     1      14.783  -4.326   2.046  1.00  0.00     0.000 C 
BRANCH  18  19
ATOM     19  C   UNL     1      14.185  -2.933   2.282  1.00  0.00    -0.000 C 
BRANCH  19  20
ATOM     20  C   UNL     1      13.454  -2.327   1.080  1.00  0.00    -0.000 C 
BRANCH  20  21
ATOM     21  C   UNL     1      13.797  -0.853   0.851  1.00  0.00    -0.003 C 
ATOM     22  C   UNL     1      15.301  -0.625   0.860  1.00  0.00     0.004 C 
ENDBRANCH  20  21
ENDBRANCH  19  20
ENDBRANCH  18  19
ENDBRANCH  17  18
ENDBRANCH  16  17
ENDBRANCH  12  16
ENDBRANCH   9  12
ENDBRANCH   6   9
ENDBRANCH   3   5
ENDBRANCH   2   3
BRANCH   2  23
ATOM     23  N   UNL     1      15.134  -9.907  -4.143  1.00  0.00    -0.332 N 
ATOM     24  C   UNL     1      16.067 -10.361  -5.163  1.00  0.00     0.147 C 
BRANCH  23  25
ATOM     25  C   UNL     1      15.639 -10.002  -2.746  1.00  0.00     0.174 C 
BRANCH  25  26
ATOM     26  C   UNL     1      17.104 -10.493  -2.667  1.00  0.00     0.038 C 
BRANCH  26  27
ATOM     27  C   UNL     1      17.916 -10.076  -1.420  1.00  0.00    -0.015 C 
ATOM     28  C   UNL     1      19.354 -10.591  -1.460  1.00  0.00     0.007 C 
ATOM     29  C   UNL     1      17.891  -8.573  -1.154  1.00  0.00     0.007 C 
ENDBRANCH  26  27
ENDBRANCH  25  26
BRANCH  25  30
ATOM     30  C   UNL     1      14.659 -10.828  -1.881  1.00  0.00     0.243 C 
ATOM     31  O   UNL     1      14.636 -12.057  -1.920  1.00  0.00    -0.273 OA
ATOM     32  N   UNL     1      13.819 -10.101  -1.078  1.00  0.00    -0.342 N 
ATOM     33  H   UNL     1      13.994  -9.096  -0.995  1.00  0.00     0.164 HD
BRANCH  32  34
ATOM     34  C   UNL     1      12.808 -10.714  -0.212  1.00  0.00     0.175 C 
BRANCH  34  35
ATOM     35  C   UNL     1      12.982 -10.273   1.249  1.00  0.00     0.070 C 
BRANCH  35  36
ATOM     36  C   UNL     1      14.430 -10.059   1.627  1.00  0.00    -0.045 A 
ATOM     37  C   UNL     1      14.910  -8.762   1.860  1.00  0.00     0.007 A 
ATOM     38  C   UNL     1      15.315 -11.141   1.726  1.00  0.00     0.007 A 
ATOM     39  C   UNL     1      16.248  -8.553   2.196  1.00  0.00     0.046 A 
ATOM     40  C   UNL     1      16.655 -10.933   2.060  1.00  0.00     0.046 A 
ATOM     41  C   UNL     1      17.110  -9.639   2.293  1.00  0.00     0.115 A 
BRANCH  41  42
ATOM     42  O   UNL     1      18.410  -9.391   2.620  1.00  0.00    -0.508 OA
ATOM     43  H   UNL     1      18.447  -9.147   3.560  1.00  0.00     0.293 HD
ENDBRANCH  41  42
ENDBRANCH  35  36
ENDBRANCH  34  35
BRANCH  34  44
ATOM     44  C   UNL     1      11.414 -10.340  -0.765  1.00  0.00     0.243 C 
ATOM     45  O   UNL     1      10.711 -11.089  -1.439  1.00  0.00    -0.273 OA
ATOM     46  N   UNL     1      11.071  -9.023  -0.545  1.00  0.00    -0.341 N 
ATOM     47  H   UNL     1      11.738  -8.409  -0.084  1.00  0.00     0.164 HD
BRANCH  46  48
ATOM     48  C   UNL     1       9.830  -8.421  -1.036  1.00  0.00     0.196 C 
BRANCH  48  49
ATOM     49  C   UNL     1       9.186  -7.518   0.030  1.00  0.00     0.072 C 
BRANCH  49  50
ATOM     50  C   UNL     1       7.677  -7.616   0.041  1.00  0.00    -0.045 A 
ATOM     51  C   UNL     1       6.921  -6.688   0.772  1.00  0.00     0.007 A 
ATOM     52  C   UNL     1       7.016  -8.637  -0.654  1.00  0.00     0.007 A 
ATOM     53  C   UNL     1       5.529  -6.776   0.800  1.00  0.00     0.046 A 
ATOM     54  C   UNL     1       5.622  -8.726  -0.625  1.00  0.00     0.046 A 
ATOM     55  C   UNL     1       4.890  -7.793   0.101  1.00  0.00     0.115 A 
BRANCH  55  56
ATOM     56  O   UNL     1       3.529  -7.845   0.156  1.00  0.00    -0.508 OA
ATOM     57  H   UNL     1       3.175  -7.458  -0.661  1.00  0.00     0.293 HD
ENDBRANCH  55  56
ENDBRANCH  49  50
ENDBRANCH  48  49
BRANCH  48  58
ATOM     58  C   UNL     1      10.138  -7.594  -2.292  1.00  0.00     0.326 C 
ATOM     59  O   UNL     1      10.469  -8.013  -3.390  1.00  0.00    -0.250 OA
BRANCH  58  60
ATOM     60  O   UNL     1       9.998  -6.257  -2.108  1.00  0.00    -0.480 OA
ATOM     61  H   UNL     1      10.211  -6.136  -1.157  1.00  0.00     0.296 HD
ENDBRANCH  58  60
ENDBRANCH  48  58
ENDBRANCH  46  48
ENDBRANCH  34  44
ENDBRANCH  32  34
ENDBRANCH  25  30
ENDBRANCH  23  25
ENDBRANCH   2  23
TORSDOF 28
ENDMDL
MODEL 10
REMARK VINA RESULT:    -4.360     13.137     16.959
REMARK INTER + INTRA:         -17.375
REMARK INTER:                 -10.152
REMARK INTRA:                  -7.223
REMARK UNBOUND:                -6.517
REMARK SMILES CCCCCCC[C@H](N)[C@H](O)C(=O)N[C@H](C)C(=O)N(C)[C@H](CC(C)C)C(=O)N[C@@H](Cc1ccc(O)cc1)C(=O)N[C@@H](Cc1ccc(O)cc1)C(=O)O
REMARK SMILES IDX 18 1 17 2 15 3 16 4 14 5 12 6 13 7 10 9 11 10 8 12 9 13 7 16
REMARK SMILES IDX 6 17 5 18 4 19 3 20 2 21 1 22 19 23 20 24 21 25 22 26 23 27
REMARK SMILES IDX 24 28 25 29 26 30 27 31 28 32 29 34 30 35 31 36 32 37 37 38
REMARK SMILES IDX 33 39 36 40 34 41 35 42 38 44 39 45 40 46 41 48 42 49 43 50
REMARK SMILES IDX 44 51 49 52 45 53 48 54 46 55 47 56 50 58 51 59 52 60
REMARK H PARENT 14 8 11 11 9 14 9 15 28 33 35 43 40 47 47 57 52 61
ROOT
ATOM      1  O   UNL     1      16.347 -11.154  -1.891  1.00  0.00    -0.272 OA
ATOM      2  C   UNL     1      16.638  -9.986  -1.590  1.00  0.00     0.245 C 
ENDROOT
BRANCH   2   3
ATOM      3  C   UNL     1      18.069  -9.477  -1.893  1.00  0.00     0.168 C 
ATOM      4  C   UNL     1      19.074 -10.623  -1.840  1.00  0.00     0.041 C 
BRANCH   3   5
ATOM      5  N   UNL     1      18.195  -8.702  -3.117  1.00  0.00    -0.342 N 
ATOM      6  C   UNL     1      18.221  -7.323  -3.107  1.00  0.00     0.251 C 
ATOM      7  O   UNL     1      18.100  -6.653  -2.087  1.00  0.00    -0.272 OA
ATOM      8  H   UNL     1      18.268  -9.147  -4.029  1.00  0.00     0.164 HD
BRANCH   6   9
ATOM      9  C   UNL     1      18.504  -6.723  -4.493  1.00  0.00     0.219 C 
BRANCH   9  10
ATOM     10  O   UNL     1      19.905  -6.592  -4.763  1.00  0.00    -0.382 OA
ATOM     11  H   UNL     1      20.291  -7.412  -4.383  1.00  0.00     0.211 HD
ENDBRANCH   9  10
BRANCH   9  12
ATOM     12  C   UNL     1      17.791  -7.482  -5.642  1.00  0.00     0.089 C 
BRANCH  12  13
ATOM     13  N   UNL     1      16.358  -7.618  -5.293  1.00  0.00    -0.325 NA
ATOM     14  H   UNL     1      15.820  -6.913  -5.800  1.00  0.00     0.119 HD
ATOM     15  H   UNL     1      16.235  -7.388  -4.304  1.00  0.00     0.119 HD
ENDBRANCH  12  13
BRANCH  12  16
ATOM     16  C   UNL     1      17.937  -6.867  -7.055  1.00  0.00     0.022 C 
BRANCH  16  17
ATOM     17  C   UNL     1      19.105  -7.312  -7.946  1.00  0.00     0.002 C 
BRANCH  17  18
ATOM     18  C   UNL     1      18.820  -7.281  -9.445  1.00  0.00     0.000 C 
BRANCH  18  19
ATOM     19  C   UNL     1      19.199  -8.573 -10.180  1.00  0.00    -0.000 C 
BRANCH  19  20
ATOM     20  C   UNL     1      19.516  -9.767  -9.275  1.00  0.00    -0.000 C 
BRANCH  20  21
ATOM     21  C   UNL     1      19.846 -11.041 -10.056  1.00  0.00    -0.003 C 
ATOM     22  C   UNL     1      19.560 -12.287  -9.231  1.00  0.00     0.004 C 
ENDBRANCH  20  21
ENDBRANCH  19  20
ENDBRANCH  18  19
ENDBRANCH  17  18
ENDBRANCH  16  17
ENDBRANCH  12  16
ENDBRANCH   9  12
ENDBRANCH   6   9
ENDBRANCH   3   5
ENDBRANCH   2   3
BRANCH   2  23
ATOM     23  N   UNL     1      15.656  -9.128  -1.106  1.00  0.00    -0.332 N 
ATOM     24  C   UNL     1      15.380  -8.901   0.305  1.00  0.00     0.147 C 
BRANCH  23  25
ATOM     25  C   UNL     1      14.886  -8.264  -2.042  1.00  0.00     0.174 C 
BRANCH  25  26
ATOM     26  C   UNL     1      14.524  -6.889  -1.432  1.00  0.00     0.038 C 
BRANCH  26  27
ATOM     27  C   UNL     1      14.721  -5.650  -2.333  1.00  0.00    -0.015 C 
ATOM     28  C   UNL     1      13.460  -5.292  -3.120  1.00  0.00     0.007 C 
ATOM     29  C   UNL     1      15.249  -4.431  -1.582  1.00  0.00     0.007 C 
ENDBRANCH  26  27
ENDBRANCH  25  26
BRANCH  25  30
ATOM     30  C   UNL     1      13.669  -9.037  -2.601  1.00  0.00     0.243 C 
ATOM     31  O   UNL     1      12.892  -9.644  -1.866  1.00  0.00    -0.273 OA
ATOM     32  N   UNL     1      13.521  -9.004  -3.964  1.00  0.00    -0.342 N 
ATOM     33  H   UNL     1      14.122  -8.365  -4.491  1.00  0.00     0.164 HD
BRANCH  32  34
ATOM     34  C   UNL     1      12.442  -9.702  -4.669  1.00  0.00     0.175 C 
BRANCH  34  35
ATOM     35  C   UNL     1      11.401  -8.712  -5.216  1.00  0.00     0.070 C 
BRANCH  35  36
ATOM     36  C   UNL     1      11.873  -7.996  -6.461  1.00  0.00    -0.045 A 
ATOM     37  C   UNL     1      11.267  -8.264  -7.698  1.00  0.00     0.007 A 
ATOM     38  C   UNL     1      12.930  -7.078  -6.405  1.00  0.00     0.007 A 
ATOM     39  C   UNL     1      11.705  -7.618  -8.854  1.00  0.00     0.046 A 
ATOM     40  C   UNL     1      13.370  -6.432  -7.563  1.00  0.00     0.046 A 
ATOM     41  C   UNL     1      12.751  -6.707  -8.778  1.00  0.00     0.115 A 
BRANCH  41  42
ATOM     42  O   UNL     1      13.151  -6.100  -9.932  1.00  0.00    -0.508 OA
ATOM     43  H   UNL     1      13.346  -6.790 -10.587  1.00  0.00     0.293 HD
ENDBRANCH  41  42
ENDBRANCH  35  36
ENDBRANCH  34  35
BRANCH  34  44
ATOM     44  C   UNL     1      13.077 -10.552  -5.793  1.00  0.00     0.243 C 
ATOM     45  O   UNL     1      12.461 -11.358  -6.485  1.00  0.00    -0.273 OA
ATOM     46  N   UNL     1      14.447 -10.424  -5.870  1.00  0.00    -0.341 N 
ATOM     47  H   UNL     1      14.927  -9.832  -5.197  1.00  0.00     0.164 HD
BRANCH  46  48
ATOM     48  C   UNL     1      15.275 -11.182  -6.811  1.00  0.00     0.196 C 
BRANCH  48  49
ATOM     49  C   UNL     1      16.310 -10.278  -7.501  1.00  0.00     0.072 C 
BRANCH  49  50
ATOM     50  C   UNL     1      16.013 -10.069  -8.969  1.00  0.00    -0.045 A 
ATOM     51  C   UNL     1      15.598  -8.809  -9.426  1.00  0.00     0.007 A 
ATOM     52  C   UNL     1      16.125 -11.123  -9.884  1.00  0.00     0.007 A 
ATOM     53  C   UNL     1      15.309  -8.608 -10.775  1.00  0.00     0.046 A 
ATOM     54  C   UNL     1      15.833 -10.922 -11.235  1.00  0.00     0.046 A 
ATOM     55  C   UNL     1      15.429  -9.665 -11.670  1.00  0.00     0.115 A 
BRANCH  55  56
ATOM     56  O   UNL     1      15.134  -9.427 -12.980  1.00  0.00    -0.508 OA
ATOM     57  H   UNL     1      14.191  -9.607 -13.119  1.00  0.00     0.293 HD
ENDBRANCH  55  56
ENDBRANCH  49  50
ENDBRANCH  48  49
BRANCH  48  58
ATOM     58  C   UNL     1      15.998 -12.303  -6.050  1.00  0.00     0.326 C 
ATOM     59  O   UNL     1      16.466 -13.329  -6.515  1.00  0.00    -0.250 OA
BRANCH  58  60
ATOM     60  O   UNL     1      16.111 -12.067  -4.718  1.00  0.00    -0.480 OA
ATOM     61  H   UNL     1      16.572 -12.867  -4.385  1.00  0.00     0.296 HD
ENDBRANCH  58  60
ENDBRANCH  48  58
ENDBRANCH  46  48
ENDBRANCH  34  44
ENDBRANCH  32  34
ENDBRANCH  25  30
ENDBRANCH  23  25
ENDBRANCH   2  23
TORSDOF 28
ENDMDL
MODEL 11
REMARK VINA RESULT:    -4.348      5.120     11.235
REMARK INTER + INTRA:         -17.347
REMARK INTER:                 -13.857
REMARK INTRA:                  -3.489
REMARK UNBOUND:                -6.517
REMARK SMILES CCCCCCC[C@H](N)[C@H](O)C(=O)N[C@H](C)C(=O)N(C)[C@H](CC(C)C)C(=O)N[C@@H](Cc1ccc(O)cc1)C(=O)N[C@@H](Cc1ccc(O)cc1)C(=O)O
REMARK SMILES IDX 18 1 17 2 15 3 16 4 14 5 12 6 13 7 10 9 11 10 8 12 9 13 7 16
REMARK SMILES IDX 6 17 5 18 4 19 3 20 2 21 1 22 19 23 20 24 21 25 22 26 23 27
REMARK SMILES IDX 24 28 25 29 26 30 27 31 28 32 29 34 30 35 31 36 32 37 37 38
REMARK SMILES IDX 33 39 36 40 34 41 35 42 38 44 39 45 40 46 41 48 42 49 43 50
REMARK SMILES IDX 44 51 49 52 45 53 48 54 46 55 47 56 50 58 51 59 52 60
REMARK H PARENT 14 8 11 11 9 14 9 15 28 33 35 43 40 47 47 57 52 61
ROOT
ATOM      1  O   UNL     1       9.792  10.014   2.032  1.00  0.00    -0.272 OA
ATOM      2  C   UNL     1       9.876   8.788   1.865  1.00  0.00     0.245 C 
ENDROOT
BRANCH   2   3
ATOM      3  C   UNL     1       8.797   7.878   2.502  1.00  0.00     0.168 C 
ATOM      4  C   UNL     1       9.339   6.470   2.726  1.00  0.00     0.041 C 
BRANCH   3   5
ATOM      5  N   UNL     1       8.174   8.416   3.701  1.00  0.00    -0.342 N 
ATOM      6  C   UNL     1       6.892   8.921   3.691  1.00  0.00     0.251 C 
ATOM      7  O   UNL     1       6.202   8.995   2.680  1.00  0.00    -0.272 OA
ATOM      8  H   UNL     1       8.662   8.440   4.594  1.00  0.00     0.164 HD
BRANCH   6   9
ATOM      9  C   UNL     1       6.391   9.301   5.094  1.00  0.00     0.219 C 
BRANCH   9  10
ATOM     10  O   UNL     1       7.140   8.667   6.138  1.00  0.00    -0.382 OA
ATOM     11  H   UNL     1       7.100   7.713   5.906  1.00  0.00     0.211 HD
ENDBRANCH   9  10
BRANCH   9  12
ATOM     12  C   UNL     1       6.317  10.833   5.321  1.00  0.00     0.089 C 
BRANCH  12  13
ATOM     13  N   UNL     1       7.252  11.490   4.379  1.00  0.00    -0.325 NA
ATOM     14  H   UNL     1       8.076  11.810   4.892  1.00  0.00     0.119 HD
ATOM     15  H   UNL     1       6.815  12.342   4.019  1.00  0.00     0.119 HD
ENDBRANCH  12  13
BRANCH  12  16
ATOM     16  C   UNL     1       4.912  11.469   5.205  1.00  0.00     0.022 C 
BRANCH  16  17
ATOM     17  C   UNL     1       3.682  10.554   5.129  1.00  0.00     0.002 C 
BRANCH  17  18
ATOM     18  C   UNL     1       2.553  10.909   6.094  1.00  0.00     0.000 C 
BRANCH  18  19
ATOM     19  C   UNL     1       1.276  11.408   5.406  1.00  0.00    -0.000 C 
BRANCH  19  20
ATOM     20  C   UNL     1       1.415  11.699   3.909  1.00  0.00    -0.000 C 
BRANCH  20  21
ATOM     21  C   UNL     1       0.186  11.277   3.099  1.00  0.00    -0.003 C 
ATOM     22  C   UNL     1      -1.103  11.664   3.807  1.00  0.00     0.004 C 
ENDBRANCH  20  21
ENDBRANCH  19  20
ENDBRANCH  18  19
ENDBRANCH  17  18
ENDBRANCH  16  17
ENDBRANCH  12  16
ENDBRANCH   9  12
ENDBRANCH   6   9
ENDBRANCH   3   5
ENDBRANCH   2   3
BRANCH   2  23
ATOM     23  N   UNL     1      10.850   8.267   1.020  1.00  0.00    -0.332 N 
ATOM     24  C   UNL     1      10.610   7.831  -0.347  1.00  0.00     0.147 C 
BRANCH  23  25
ATOM     25  C   UNL     1      12.277   8.241   1.445  1.00  0.00     0.174 C 
BRANCH  25  26
ATOM     26  C   UNL     1      12.449   8.255   2.982  1.00  0.00     0.038 C 
BRANCH  26  27
ATOM     27  C   UNL     1      12.814   6.914   3.657  1.00  0.00    -0.015 C 
ATOM     28  C   UNL     1      13.928   6.173   2.920  1.00  0.00     0.007 C 
ATOM     29  C   UNL     1      13.152   7.054   5.140  1.00  0.00     0.007 C 
ENDBRANCH  26  27
ENDBRANCH  25  26
BRANCH  25  30
ATOM     30  C   UNL     1      13.067   9.356   0.721  1.00  0.00     0.243 C 
ATOM     31  O   UNL     1      12.567  10.452   0.475  1.00  0.00    -0.273 OA
ATOM     32  N   UNL     1      14.354   9.039   0.370  1.00  0.00    -0.342 N 
ATOM     33  H   UNL     1      14.742   8.164   0.733  1.00  0.00     0.164 HD
BRANCH  32  34
ATOM     34  C   UNL     1      15.241   9.961  -0.345  1.00  0.00     0.175 C 
BRANCH  34  35
ATOM     35  C   UNL     1      16.357  10.485   0.571  1.00  0.00     0.070 C 
BRANCH  35  36
ATOM     36  C   UNL     1      16.415   9.760   1.897  1.00  0.00    -0.045 A 
ATOM     37  C   UNL     1      15.774  10.302   3.021  1.00  0.00     0.007 A 
ATOM     38  C   UNL     1      17.124   8.559   2.029  1.00  0.00     0.007 A 
ATOM     39  C   UNL     1      15.834   9.647   4.252  1.00  0.00     0.046 A 
ATOM     40  C   UNL     1      17.185   7.903   3.261  1.00  0.00     0.046 A 
ATOM     41  C   UNL     1      16.537   8.454   4.362  1.00  0.00     0.115 A 
BRANCH  41  42
ATOM     42  O   UNL     1      16.574   7.848   5.583  1.00  0.00    -0.508 OA
ATOM     43  H   UNL     1      17.487   7.882   5.913  1.00  0.00     0.293 HD
ENDBRANCH  41  42
ENDBRANCH  35  36
ENDBRANCH  34  35
BRANCH  34  44
ATOM     44  C   UNL     1      15.806   9.221  -1.579  1.00  0.00     0.243 C 
ATOM     45  O   UNL     1      16.930   9.400  -2.040  1.00  0.00    -0.273 OA
ATOM     46  N   UNL     1      14.878   8.421  -2.211  1.00  0.00    -0.341 N 
ATOM     47  H   UNL     1      13.925   8.396  -1.858  1.00  0.00     0.164 HD
BRANCH  46  48
ATOM     48  C   UNL     1      15.162   7.675  -3.439  1.00  0.00     0.196 C 
BRANCH  48  49
ATOM     49  C   UNL     1      15.755   8.588  -4.525  1.00  0.00     0.072 C 
BRANCH  49  50
ATOM     50  C   UNL     1      15.461   8.096  -5.924  1.00  0.00    -0.045 A 
ATOM     51  C   UNL     1      14.132   7.926  -6.340  1.00  0.00     0.007 A 
ATOM     52  C   UNL     1      16.499   7.785  -6.812  1.00  0.00     0.007 A 
ATOM     53  C   UNL     1      13.849   7.460  -7.624  1.00  0.00     0.046 A 
ATOM     54  C   UNL     1      16.215   7.318  -8.097  1.00  0.00     0.046 A 
ATOM     55  C   UNL     1      14.891   7.160  -8.493  1.00  0.00     0.115 A 
BRANCH  55  56
ATOM     56  O   UNL     1      14.572   6.705  -9.738  1.00  0.00    -0.508 OA
ATOM     57  H   UNL     1      15.132   7.164 -10.384  1.00  0.00     0.293 HD
ENDBRANCH  55  56
ENDBRANCH  49  50
ENDBRANCH  48  49
BRANCH  48  58
ATOM     58  C   UNL     1      16.150   6.545  -3.121  1.00  0.00     0.326 C 
ATOM     59  O   UNL     1      15.892   5.445  -2.659  1.00  0.00    -0.250 OA
BRANCH  58  60
ATOM     60  O   UNL     1      17.438   6.853  -3.417  1.00  0.00    -0.480 OA
ATOM     61  H   UNL     1      17.617   6.323  -4.224  1.00  0.00     0.296 HD
ENDBRANCH  58  60
ENDBRANCH  48  58
ENDBRANCH  46  48
ENDBRANCH  34  44
ENDBRANCH  32  34
ENDBRANCH  25  30
ENDBRANCH  23  25
ENDBRANCH   2  23
TORSDOF 28
ENDMDL
MODEL 12
REMARK VINA RESULT:    -4.337     25.226     29.636
REMARK INTER + INTRA:         -17.319
REMARK INTER:                 -12.765
REMARK INTRA:                  -4.554
REMARK UNBOUND:                -6.517
REMARK SMILES CCCCCCC[C@H](N)[C@H](O)C(=O)N[C@H](C)C(=O)N(C)[C@H](CC(C)C)C(=O)N[C@@H](Cc1ccc(O)cc1)C(=O)N[C@@H](Cc1ccc(O)cc1)C(=O)O
REMARK SMILES IDX 18 1 17 2 15 3 16 4 14 5 12 6 13 7 10 9 11 10 8 12 9 13 7 16
REMARK SMILES IDX 6 17 5 18 4 19 3 20 2 21 1 22 19 23 20 24 21 25 22 26 23 27
REMARK SMILES IDX 24 28 25 29 26 30 27 31 28 32 29 34 30 35 31 36 32 37 37 38
REMARK SMILES IDX 33 39 36 40 34 41 35 42 38 44 39 45 40 46 41 48 42 49 43 50
REMARK SMILES IDX 44 51 49 52 45 53 48 54 46 55 47 56 50 58 51 59 52 60
REMARK H PARENT 14 8 11 11 9 14 9 15 28 33 35 43 40 47 47 57 52 61
ROOT
ATOM      1  O   UNL     1      -6.535 -10.683   1.912  1.00  0.00    -0.272 OA
ATOM      2  C   UNL     1      -6.186 -11.823   2.252  1.00  0.00     0.245 C 
ENDROOT
BRANCH   2   3
ATOM      3  C   UNL     1      -4.738 -12.278   1.942  1.00  0.00     0.168 C 
ATOM      4  C   UNL     1      -4.737 -13.600   1.182  1.00  0.00     0.041 C 
BRANCH   3   5
ATOM      5  N   UNL     1      -3.909 -11.277   1.290  1.00  0.00    -0.342 N 
ATOM      6  C   UNL     1      -2.701 -10.876   1.818  1.00  0.00     0.251 C 
ATOM      7  O   UNL     1      -2.256 -11.293   2.883  1.00  0.00    -0.272 OA
ATOM      8  H   UNL     1      -4.190 -10.833   0.419  1.00  0.00     0.164 HD
BRANCH   6   9
ATOM      9  C   UNL     1      -1.934  -9.919   0.891  1.00  0.00     0.219 C 
BRANCH   9  10
ATOM     10  O   UNL     1      -1.625 -10.508  -0.378  1.00  0.00    -0.382 OA
ATOM     11  H   UNL     1      -2.506 -10.746  -0.742  1.00  0.00     0.211 HD
ENDBRANCH   9  10
BRANCH   9  12
ATOM     12  C   UNL     1      -2.644  -8.552   0.705  1.00  0.00     0.089 C 
BRANCH  12  13
ATOM     13  N   UNL     1      -3.385  -8.237   1.949  1.00  0.00    -0.325 NA
ATOM     14  H   UNL     1      -4.388  -8.281   1.762  1.00  0.00     0.119 HD
ATOM     15  H   UNL     1      -3.203  -7.264   2.204  1.00  0.00     0.119 HD
ENDBRANCH  12  13
BRANCH  12  16
ATOM     16  C   UNL     1      -1.735  -7.363   0.313  1.00  0.00     0.022 C 
BRANCH  16  17
ATOM     17  C   UNL     1      -2.374  -5.999   0.020  1.00  0.00     0.002 C 
BRANCH  17  18
ATOM     18  C   UNL     1      -1.469  -4.796   0.275  1.00  0.00     0.000 C 
BRANCH  18  19
ATOM     19  C   UNL     1      -2.053  -3.771   1.256  1.00  0.00    -0.000 C 
BRANCH  19  20
ATOM     20  C   UNL     1      -1.165  -3.444   2.460  1.00  0.00    -0.000 C 
BRANCH  20  21
ATOM     21  C   UNL     1      -1.728  -3.974   3.782  1.00  0.00    -0.003 C 
ATOM     22  C   UNL     1      -1.025  -3.346   4.975  1.00  0.00     0.004 C 
ENDBRANCH  20  21
ENDBRANCH  19  20
ENDBRANCH  18  19
ENDBRANCH  17  18
ENDBRANCH  16  17
ENDBRANCH  12  16
ENDBRANCH   9  12
ENDBRANCH   6   9
ENDBRANCH   3   5
ENDBRANCH   2   3
BRANCH   2  23
ATOM     23  N   UNL     1      -7.046 -12.619   3.003  1.00  0.00    -0.332 N 
ATOM     24  C   UNL     1      -8.238 -13.268   2.479  1.00  0.00     0.147 C 
BRANCH  23  25
ATOM     25  C   UNL     1      -6.710 -12.966   4.411  1.00  0.00     0.174 C 
BRANCH  25  26
ATOM     26  C   UNL     1      -7.217 -14.368   4.823  1.00  0.00     0.038 C 
BRANCH  26  27
ATOM     27  C   UNL     1      -6.153 -15.395   5.269  1.00  0.00    -0.015 C 
ATOM     28  C   UNL     1      -6.740 -16.790   5.482  1.00  0.00     0.007 C 
ATOM     29  C   UNL     1      -4.943 -15.458   4.340  1.00  0.00     0.007 C 
ENDBRANCH  26  27
ENDBRANCH  25  26
BRANCH  25  30
ATOM     30  C   UNL     1      -7.166 -11.835   5.361  1.00  0.00     0.243 C 
ATOM     31  O   UNL     1      -7.921 -10.938   4.988  1.00  0.00    -0.273 OA
ATOM     32  N   UNL     1      -6.670 -11.897   6.638  1.00  0.00    -0.342 N 
ATOM     33  H   UNL     1      -6.166 -12.745   6.910  1.00  0.00     0.164 HD
BRANCH  32  34
ATOM     34  C   UNL     1      -6.973 -10.897   7.665  1.00  0.00     0.175 C 
BRANCH  34  35
ATOM     35  C   UNL     1      -8.018 -11.419   8.663  1.00  0.00     0.070 C 
BRANCH  35  36
ATOM     36  C   UNL     1      -8.118 -12.928   8.668  1.00  0.00    -0.045 A 
ATOM     37  C   UNL     1      -7.008 -13.704   9.033  1.00  0.00     0.007 A 
ATOM     38  C   UNL     1      -9.304 -13.571   8.290  1.00  0.00     0.007 A 
ATOM     39  C   UNL     1      -7.086 -15.097   9.028  1.00  0.00     0.046 A 
ATOM     40  C   UNL     1      -9.383 -14.966   8.283  1.00  0.00     0.046 A 
ATOM     41  C   UNL     1      -8.272 -15.717   8.654  1.00  0.00     0.115 A 
BRANCH  41  42
ATOM     42  O   UNL     1      -8.306 -17.080   8.660  1.00  0.00    -0.508 OA
ATOM     43  H   UNL     1      -7.462 -17.407   8.308  1.00  0.00     0.293 HD
ENDBRANCH  41  42
ENDBRANCH  35  36
ENDBRANCH  34  35
BRANCH  34  44
ATOM     44  C   UNL     1      -5.650 -10.512   8.364  1.00  0.00     0.243 C 
ATOM     45  O   UNL     1      -5.509  -9.534   9.093  1.00  0.00    -0.273 OA
ATOM     46  N   UNL     1      -4.582 -11.301   7.990  1.00  0.00    -0.341 N 
ATOM     47  H   UNL     1      -4.725 -12.026   7.292  1.00  0.00     0.164 HD
BRANCH  46  48
ATOM     48  C   UNL     1      -3.215 -11.085   8.468  1.00  0.00     0.196 C 
BRANCH  48  49
ATOM     49  C   UNL     1      -2.778 -12.196   9.438  1.00  0.00     0.072 C 
BRANCH  49  50
ATOM     50  C   UNL     1      -2.479 -13.499   8.732  1.00  0.00    -0.045 A 
ATOM     51  C   UNL     1      -1.153 -13.940   8.612  1.00  0.00     0.007 A 
ATOM     52  C   UNL     1      -3.507 -14.270   8.174  1.00  0.00     0.007 A 
ATOM     53  C   UNL     1      -0.863 -15.134   7.952  1.00  0.00     0.046 A 
ATOM     54  C   UNL     1      -3.217 -15.465   7.512  1.00  0.00     0.046 A 
ATOM     55  C   UNL     1      -1.896 -15.888   7.408  1.00  0.00     0.115 A 
BRANCH  55  56
ATOM     56  O   UNL     1      -1.571 -17.047   6.769  1.00  0.00    -0.508 OA
ATOM     57  H   UNL     1      -2.343 -17.344   6.262  1.00  0.00     0.293 HD
ENDBRANCH  55  56
ENDBRANCH  49  50
ENDBRANCH  48  49
BRANCH  48  58
ATOM     58  C   UNL     1      -2.265 -11.051   7.263  1.00  0.00     0.326 C 
ATOM     59  O   UNL     1      -2.515 -11.381   6.115  1.00  0.00    -0.250 OA
BRANCH  58  60
ATOM     60  O   UNL     1      -1.027 -10.581   7.562  1.00  0.00    -0.480 OA
ATOM     61  H   UNL     1      -0.950 -10.746   8.527  1.00  0.00     0.296 HD
ENDBRANCH  58  60
ENDBRANCH  48  58
ENDBRANCH  46  48
ENDBRANCH  34  44
ENDBRANCH  32  34
ENDBRANCH  25  30
ENDBRANCH  23  25
ENDBRANCH   2  23
TORSDOF 28
ENDMDL
MODEL 13
REMARK VINA RESULT:    -4.298     24.325     28.762
REMARK INTER + INTRA:         -17.223
REMARK INTER:                 -13.259
REMARK INTRA:                  -3.964
REMARK UNBOUND:                -6.517
REMARK SMILES CCCCCCC[C@H](N)[C@H](O)C(=O)N[C@H](C)C(=O)N(C)[C@H](CC(C)C)C(=O)N[C@@H](Cc1ccc(O)cc1)C(=O)N[C@@H](Cc1ccc(O)cc1)C(=O)O
REMARK SMILES IDX 18 1 17 2 15 3 16 4 14 5 12 6 13 7 10 9 11 10 8 12 9 13 7 16
REMARK SMILES IDX 6 17 5 18 4 19 3 20 2 21 1 22 19 23 20 24 21 25 22 26 23 27
REMARK SMILES IDX 24 28 25 29 26 30 27 31 28 32 29 34 30 35 31 36 32 37 37 38
REMARK SMILES IDX 33 39 36 40 34 41 35 42 38 44 39 45 40 46 41 48 42 49 43 50
REMARK SMILES IDX 44 51 49 52 45 53 48 54 46 55 47 56 50 58 51 59 52 60
REMARK H PARENT 14 8 11 11 9 14 9 15 28 33 35 43 40 47 47 57 52 61
ROOT
ATOM      1  O   UNL     1      -3.235 -11.765   3.387  1.00  0.00    -0.272 OA
ATOM      2  C   UNL     1      -3.915 -11.922   2.362  1.00  0.00     0.245 C 
ENDROOT
BRANCH   2   3
ATOM      3  C   UNL     1      -3.371 -11.369   1.021  1.00  0.00     0.168 C 
ATOM      4  C   UNL     1      -4.455 -10.601   0.272  1.00  0.00     0.041 C 
BRANCH   3   5
ATOM      5  N   UNL     1      -2.140 -10.602   1.130  1.00  0.00    -0.342 N 
ATOM      6  C   UNL     1      -1.005 -10.944   0.427  1.00  0.00     0.251 C 
ATOM      7  O   UNL     1      -0.930 -11.928  -0.300  1.00  0.00    -0.272 OA
ATOM      8  H   UNL     1      -2.070  -9.783   1.730  1.00  0.00     0.164 HD
BRANCH   6   9
ATOM      9  C   UNL     1       0.125  -9.913   0.586  1.00  0.00     0.219 C 
BRANCH   9  10
ATOM     10  O   UNL     1       1.422 -10.520   0.645  1.00  0.00    -0.382 OA
ATOM     11  H   UNL     1       1.846 -10.239  -0.196  1.00  0.00     0.211 HD
ENDBRANCH   9  10
BRANCH   9  12
ATOM     12  C   UNL     1       0.087  -8.797  -0.490  1.00  0.00     0.089 C 
BRANCH  12  13
ATOM     13  N   UNL     1      -0.761  -9.259  -1.613  1.00  0.00    -0.325 NA
ATOM     14  H   UNL     1      -1.078 -10.212  -1.424  1.00  0.00     0.119 HD
ATOM     15  H   UNL     1      -0.185  -9.331  -2.455  1.00  0.00     0.119 HD
ENDBRANCH  12  13
BRANCH  12  16
ATOM     16  C   UNL     1      -0.383  -7.405  -0.007  1.00  0.00     0.022 C 
BRANCH  16  17
ATOM     17  C   UNL     1      -1.827  -7.232   0.483  1.00  0.00     0.002 C 
BRANCH  17  18
ATOM     18  C   UNL     1      -2.436  -5.856   0.225  1.00  0.00     0.000 C 
BRANCH  18  19
ATOM     19  C   UNL     1      -1.430  -4.701   0.320  1.00  0.00    -0.000 C 
BRANCH  19  20
ATOM     20  C   UNL     1      -1.772  -3.625   1.355  1.00  0.00    -0.000 C 
BRANCH  20  21
ATOM     21  C   UNL     1      -1.754  -4.150   2.794  1.00  0.00    -0.003 C 
ATOM     22  C   UNL     1      -0.994  -3.211   3.717  1.00  0.00     0.004 C 
ENDBRANCH  20  21
ENDBRANCH  19  20
ENDBRANCH  18  19
ENDBRANCH  17  18
ENDBRANCH  16  17
ENDBRANCH  12  16
ENDBRANCH   9  12
ENDBRANCH   6   9
ENDBRANCH   3   5
ENDBRANCH   2   3
BRANCH   2  23
ATOM     23  N   UNL     1      -5.077 -12.685   2.408  1.00  0.00    -0.332 N 
ATOM     24  C   UNL     1      -5.312 -13.879   1.609  1.00  0.00     0.147 C 
BRANCH  23  25
ATOM     25  C   UNL     1      -6.136 -12.382   3.409  1.00  0.00     0.174 C 
BRANCH  25  26
ATOM     26  C   UNL     1      -6.308 -10.867   3.664  1.00  0.00     0.038 C 
BRANCH  26  27
ATOM     27  C   UNL     1      -7.555 -10.191   3.052  1.00  0.00    -0.015 C 
ATOM     28  C   UNL     1      -7.783 -10.596   1.595  1.00  0.00     0.007 C 
ATOM     29  C   UNL     1      -8.825 -10.402   3.873  1.00  0.00     0.007 C 
ENDBRANCH  26  27
ENDBRANCH  25  26
BRANCH  25  30
ATOM     30  C   UNL     1      -5.902 -13.206   4.697  1.00  0.00     0.243 C 
ATOM     31  O   UNL     1      -6.268 -14.376   4.795  1.00  0.00    -0.273 OA
ATOM     32  N   UNL     1      -5.267 -12.545   5.717  1.00  0.00    -0.342 N 
ATOM     33  H   UNL     1      -4.869 -11.626   5.510  1.00  0.00     0.164 HD
BRANCH  32  34
ATOM     34  C   UNL     1      -4.987 -13.159   7.018  1.00  0.00     0.175 C 
BRANCH  34  35
ATOM     35  C   UNL     1      -3.661 -12.648   7.602  1.00  0.00     0.070 C 
BRANCH  35  36
ATOM     36  C   UNL     1      -2.778 -13.765   8.111  1.00  0.00    -0.045 A 
ATOM     37  C   UNL     1      -2.648 -14.950   7.371  1.00  0.00     0.007 A 
ATOM     38  C   UNL     1      -2.098 -13.645   9.331  1.00  0.00     0.007 A 
ATOM     39  C   UNL     1      -1.846 -15.991   7.839  1.00  0.00     0.046 A 
ATOM     40  C   UNL     1      -1.296 -14.688   9.801  1.00  0.00     0.046 A 
ATOM     41  C   UNL     1      -1.176 -15.852   9.049  1.00  0.00     0.115 A 
BRANCH  41  42
ATOM     42  O   UNL     1      -0.405 -16.894   9.472  1.00  0.00    -0.508 OA
ATOM     43  H   UNL     1      -0.946 -17.701   9.451  1.00  0.00     0.293 HD
ENDBRANCH  41  42
ENDBRANCH  35  36
ENDBRANCH  34  35
BRANCH  34  44
ATOM     44  C   UNL     1      -6.182 -12.866   7.953  1.00  0.00     0.243 C 
ATOM     45  O   UNL     1      -6.877 -13.729   8.481  1.00  0.00    -0.273 OA
ATOM     46  N   UNL     1      -6.490 -11.525   8.045  1.00  0.00    -0.341 N 
ATOM     47  H   UNL     1      -5.957 -10.857   7.495  1.00  0.00     0.164 HD
BRANCH  46  48
ATOM     48  C   UNL     1      -7.623 -11.010   8.818  1.00  0.00     0.196 C 
BRANCH  48  49
ATOM     49  C   UNL     1      -7.217  -9.790   9.661  1.00  0.00     0.072 C 
BRANCH  49  50
ATOM     50  C   UNL     1      -5.763  -9.826  10.075  1.00  0.00    -0.045 A 
ATOM     51  C   UNL     1      -4.829  -9.010   9.420  1.00  0.00     0.007 A 
ATOM     52  C   UNL     1      -5.325 -10.681  11.094  1.00  0.00     0.007 A 
ATOM     53  C   UNL     1      -3.483  -9.045   9.784  1.00  0.00     0.046 A 
ATOM     54  C   UNL     1      -3.977 -10.716  11.458  1.00  0.00     0.046 A 
ATOM     55  C   UNL     1      -3.067  -9.896  10.800  1.00  0.00     0.115 A 
BRANCH  55  56
ATOM     56  O   UNL     1      -1.743  -9.902  11.125  1.00  0.00    -0.508 OA
ATOM     57  H   UNL     1      -1.233 -10.105  10.325  1.00  0.00     0.293 HD
ENDBRANCH  55  56
ENDBRANCH  49  50
ENDBRANCH  48  49
BRANCH  48  58
ATOM     58  C   UNL     1      -8.749 -10.617   7.851  1.00  0.00     0.326 C 
ATOM     59  O   UNL     1      -9.379 -11.355   7.111  1.00  0.00    -0.250 OA
BRANCH  58  60
ATOM     60  O   UNL     1      -9.043  -9.293   7.873  1.00  0.00    -0.480 OA
ATOM     61  H   UNL     1      -9.149  -9.069   6.923  1.00  0.00     0.296 HD
ENDBRANCH  58  60
ENDBRANCH  48  58
ENDBRANCH  46  48
ENDBRANCH  34  44
ENDBRANCH  32  34
ENDBRANCH  25  30
ENDBRANCH  23  25
ENDBRANCH   2  23
TORSDOF 28
ENDMDL
MODEL 14
REMARK VINA RESULT:    -4.247     16.996     21.109
REMARK INTER + INTRA:         -17.095
REMARK INTER:                 -12.978
REMARK INTRA:                  -4.117
REMARK UNBOUND:                -6.517
REMARK SMILES CCCCCCC[C@H](N)[C@H](O)C(=O)N[C@H](C)C(=O)N(C)[C@H](CC(C)C)C(=O)N[C@@H](Cc1ccc(O)cc1)C(=O)N[C@@H](Cc1ccc(O)cc1)C(=O)O
REMARK SMILES IDX 18 1 17 2 15 3 16 4 14 5 12 6 13 7 10 9 11 10 8 12 9 13 7 16
REMARK SMILES IDX 6 17 5 18 4 19 3 20 2 21 1 22 19 23 20 24 21 25 22 26 23 27
REMARK SMILES IDX 24 28 25 29 26 30 27 31 28 32 29 34 30 35 31 36 32 37 37 38
REMARK SMILES IDX 33 39 36 40 34 41 35 42 38 44 39 45 40 46 41 48 42 49 43 50
REMARK SMILES IDX 44 51 49 52 45 53 48 54 46 55 47 56 50 58 51 59 52 60
REMARK H PARENT 14 8 11 11 9 14 9 15 28 33 35 43 40 47 47 57 52 61
ROOT
ATOM      1  O   UNL     1       4.283 -10.594  -3.948  1.00  0.00    -0.272 OA
ATOM      2  C   UNL     1       5.420 -10.936  -4.304  1.00  0.00     0.245 C 
ENDROOT
BRANCH   2   3
ATOM      3  C   UNL     1       5.669 -11.234  -5.803  1.00  0.00     0.168 C 
ATOM      4  C   UNL     1       4.378 -11.664  -6.492  1.00  0.00     0.041 C 
BRANCH   3   5
ATOM      5  N   UNL     1       6.346 -10.173  -6.533  1.00  0.00    -0.342 N 
ATOM      6  C   UNL     1       7.534 -10.391  -7.199  1.00  0.00     0.251 C 
ATOM      7  O   UNL     1       8.125 -11.465  -7.193  1.00  0.00    -0.272 OA
ATOM      8  H   UNL     1       5.969  -9.230  -6.580  1.00  0.00     0.164 HD
BRANCH   6   9
ATOM      9  C   UNL     1       7.989  -9.171  -8.016  1.00  0.00     0.219 C 
BRANCH   9  10
ATOM     10  O   UNL     1       6.944  -8.209  -8.202  1.00  0.00    -0.382 OA
ATOM     11  H   UNL     1       6.127  -8.711  -7.988  1.00  0.00     0.211 HD
ENDBRANCH   9  10
BRANCH   9  12
ATOM     12  C   UNL     1       9.263  -8.496  -7.443  1.00  0.00     0.089 C 
BRANCH  12  13
ATOM     13  N   UNL     1       9.338  -8.792  -5.994  1.00  0.00    -0.325 NA
ATOM     14  H   UNL     1      10.024  -9.532  -5.837  1.00  0.00     0.119 HD
ATOM     15  H   UNL     1       8.445  -9.187  -5.690  1.00  0.00     0.119 HD
ENDBRANCH  12  13
BRANCH  12  16
ATOM     16  C   UNL     1      10.597  -8.872  -8.132  1.00  0.00     0.022 C 
BRANCH  16  17
ATOM     17  C   UNL     1      11.919  -8.592  -7.403  1.00  0.00     0.002 C 
BRANCH  17  18
ATOM     18  C   UNL     1      12.383  -7.138  -7.445  1.00  0.00     0.000 C 
BRANCH  18  19
ATOM     19  C   UNL     1      13.273  -6.801  -8.649  1.00  0.00    -0.000 C 
BRANCH  19  20
ATOM     20  C   UNL     1      14.717  -7.300  -8.549  1.00  0.00    -0.000 C 
BRANCH  20  21
ATOM     21  C   UNL     1      15.428  -6.829  -7.277  1.00  0.00    -0.003 C 
ATOM     22  C   UNL     1      16.938  -6.819  -7.457  1.00  0.00     0.004 C 
ENDBRANCH  20  21
ENDBRANCH  19  20
ENDBRANCH  18  19
ENDBRANCH  17  18
ENDBRANCH  16  17
ENDBRANCH  12  16
ENDBRANCH   9  12
ENDBRANCH   6   9
ENDBRANCH   3   5
ENDBRANCH   2   3
BRANCH   2  23
ATOM     23  N   UNL     1       6.467 -10.927  -3.388  1.00  0.00    -0.332 N 
ATOM     24  C   UNL     1       7.557 -11.892  -3.371  1.00  0.00     0.147 C 
BRANCH  23  25
ATOM     25  C   UNL     1       6.603  -9.810  -2.414  1.00  0.00     0.174 C 
BRANCH  25  26
ATOM     26  C   UNL     1       8.077  -9.477  -2.081  1.00  0.00     0.038 C 
BRANCH  26  27
ATOM     27  C   UNL     1       8.331  -8.570  -0.856  1.00  0.00    -0.015 C 
ATOM     28  C   UNL     1       9.054  -9.303   0.273  1.00  0.00     0.007 C 
ATOM     29  C   UNL     1       9.052  -7.270  -1.202  1.00  0.00     0.007 C 
ENDBRANCH  26  27
ENDBRANCH  25  26
BRANCH  25  30
ATOM     30  C   UNL     1       5.731 -10.082  -1.167  1.00  0.00     0.243 C 
ATOM     31  O   UNL     1       6.014 -10.961  -0.355  1.00  0.00    -0.273 OA
ATOM     32  N   UNL     1       4.623  -9.285  -1.033  1.00  0.00    -0.342 N 
ATOM     33  H   UNL     1       4.533  -8.488  -1.668  1.00  0.00     0.164 HD
BRANCH  32  34
ATOM     34  C   UNL     1       3.668  -9.419   0.071  1.00  0.00     0.175 C 
BRANCH  34  35
ATOM     35  C   UNL     1       3.571  -8.119   0.885  1.00  0.00     0.070 C 
BRANCH  35  36
ATOM     36  C   UNL     1       4.896  -7.701   1.480  1.00  0.00    -0.045 A 
ATOM     37  C   UNL     1       5.539  -6.543   1.015  1.00  0.00     0.007 A 
ATOM     38  C   UNL     1       5.511  -8.467   2.479  1.00  0.00     0.007 A 
ATOM     39  C   UNL     1       6.769  -6.156   1.548  1.00  0.00     0.046 A 
ATOM     40  C   UNL     1       6.743  -8.081   3.012  1.00  0.00     0.046 A 
ATOM     41  C   UNL     1       7.360  -6.927   2.542  1.00  0.00     0.115 A 
BRANCH  41  42
ATOM     42  O   UNL     1       8.564  -6.515   3.033  1.00  0.00    -0.508 OA
ATOM     43  H   UNL     1       8.929  -7.229   3.582  1.00  0.00     0.293 HD
ENDBRANCH  41  42
ENDBRANCH  35  36
ENDBRANCH  34  35
BRANCH  34  44
ATOM     44  C   UNL     1       2.303  -9.832  -0.524  1.00  0.00     0.243 C 
ATOM     45  O   UNL     1       2.155 -10.687  -1.392  1.00  0.00    -0.273 OA
ATOM     46  N   UNL     1       1.255  -9.052  -0.083  1.00  0.00    -0.341 N 
ATOM     47  H   UNL     1       1.445  -8.278   0.548  1.00  0.00     0.164 HD
BRANCH  46  48
ATOM     48  C   UNL     1      -0.122  -9.210  -0.558  1.00  0.00     0.196 C 
BRANCH  48  49
ATOM     49  C   UNL     1      -0.809 -10.414   0.107  1.00  0.00     0.072 C 
BRANCH  49  50
ATOM     50  C   UNL     1      -1.787 -11.108  -0.814  1.00  0.00    -0.045 A 
ATOM     51  C   UNL     1      -3.078 -11.416  -0.360  1.00  0.00     0.007 A 
ATOM     52  C   UNL     1      -1.418 -11.471  -2.116  1.00  0.00     0.007 A 
ATOM     53  C   UNL     1      -3.984 -12.068  -1.197  1.00  0.00     0.046 A 
ATOM     54  C   UNL     1      -2.325 -12.125  -2.953  1.00  0.00     0.046 A 
ATOM     55  C   UNL     1      -3.601 -12.417  -2.486  1.00  0.00     0.115 A 
BRANCH  55  56
ATOM     56  O   UNL     1      -4.516 -13.055  -3.271  1.00  0.00    -0.508 OA
ATOM     57  H   UNL     1      -5.368 -13.059  -2.807  1.00  0.00     0.293 HD
ENDBRANCH  55  56
ENDBRANCH  49  50
ENDBRANCH  48  49
BRANCH  48  58
ATOM     58  C   UNL     1      -0.908  -7.930  -0.245  1.00  0.00     0.326 C 
ATOM     59  O   UNL     1      -1.954  -7.839   0.379  1.00  0.00    -0.250 OA
BRANCH  58  60
ATOM     60  O   UNL     1      -0.324  -6.804  -0.726  1.00  0.00    -0.480 OA
ATOM     61  H   UNL     1      -1.058  -6.351  -1.195  1.00  0.00     0.296 HD
ENDBRANCH  58  60
ENDBRANCH  48  58
ENDBRANCH  46  48
ENDBRANCH  34  44
ENDBRANCH  32  34
ENDBRANCH  25  30
ENDBRANCH  23  25
ENDBRANCH   2  23
TORSDOF 28
ENDMDL
MODEL 15
REMARK VINA RESULT:    -4.229     13.662     18.085
REMARK INTER + INTRA:         -17.051
REMARK INTER:                 -10.246
REMARK INTRA:                  -6.805
REMARK UNBOUND:                -6.517
REMARK SMILES CCCCCCC[C@H](N)[C@H](O)C(=O)N[C@H](C)C(=O)N(C)[C@H](CC(C)C)C(=O)N[C@@H](Cc1ccc(O)cc1)C(=O)N[C@@H](Cc1ccc(O)cc1)C(=O)O
REMARK SMILES IDX 18 1 17 2 15 3 16 4 14 5 12 6 13 7 10 9 11 10 8 12 9 13 7 16
REMARK SMILES IDX 6 17 5 18 4 19 3 20 2 21 1 22 19 23 20 24 21 25 22 26 23 27
REMARK SMILES IDX 24 28 25 29 26 30 27 31 28 32 29 34 30 35 31 36 32 37 37 38
REMARK SMILES IDX 33 39 36 40 34 41 35 42 38 44 39 45 40 46 41 48 42 49 43 50
REMARK SMILES IDX 44 51 49 52 45 53 48 54 46 55 47 56 50 58 51 59 52 60
REMARK H PARENT 14 8 11 11 9 14 9 15 28 33 35 43 40 47 47 57 52 61
ROOT
ATOM      1  O   UNL     1      16.706  -9.337  -0.257  1.00  0.00    -0.272 OA
ATOM      2  C   UNL     1      17.426  -8.919  -1.176  1.00  0.00     0.245 C 
ENDROOT
BRANCH   2   3
ATOM      3  C   UNL     1      18.100  -9.949  -2.117  1.00  0.00     0.168 C 
ATOM      4  C   UNL     1      19.448 -10.391  -1.559  1.00  0.00     0.041 C 
BRANCH   3   5
ATOM      5  N   UNL     1      17.264 -11.083  -2.479  1.00  0.00    -0.342 N 
ATOM      6  C   UNL     1      16.489 -11.082  -3.619  1.00  0.00     0.251 C 
ATOM      7  O   UNL     1      16.411 -10.125  -4.383  1.00  0.00    -0.272 OA
ATOM      8  H   UNL     1      17.220 -11.921  -1.904  1.00  0.00     0.164 HD
BRANCH   6   9
ATOM      9  C   UNL     1      15.804 -12.434  -3.874  1.00  0.00     0.219 C 
BRANCH   9  10
ATOM     10  O   UNL     1      14.541 -12.298  -4.536  1.00  0.00    -0.382 OA
ATOM     11  H   UNL     1      13.968 -11.879  -3.856  1.00  0.00     0.211 HD
ENDBRANCH   9  10
BRANCH   9  12
ATOM     12  C   UNL     1      16.712 -13.444  -4.623  1.00  0.00     0.089 C 
BRANCH  12  13
ATOM     13  N   UNL     1      17.643 -14.052  -3.644  1.00  0.00    -0.325 NA
ATOM     14  H   UNL     1      17.897 -14.989  -3.960  1.00  0.00     0.119 HD
ATOM     15  H   UNL     1      17.148 -14.193  -2.761  1.00  0.00     0.119 HD
ENDBRANCH  12  13
BRANCH  12  16
ATOM     16  C   UNL     1      15.981 -14.552  -5.419  1.00  0.00     0.022 C 
BRANCH  16  17
ATOM     17  C   UNL     1      16.777 -15.405  -6.416  1.00  0.00     0.002 C 
BRANCH  17  18
ATOM     18  C   UNL     1      16.506 -15.099  -7.887  1.00  0.00     0.000 C 
BRANCH  18  19
ATOM     19  C   UNL     1      16.979 -13.710  -8.334  1.00  0.00    -0.000 C 
BRANCH  19  20
ATOM     20  C   UNL     1      18.479 -13.449  -8.168  1.00  0.00    -0.000 C 
BRANCH  20  21
ATOM     21  C   UNL     1      19.080 -12.645  -9.324  1.00  0.00    -0.003 C 
ATOM     22  C   UNL     1      20.470 -12.133  -8.980  1.00  0.00     0.004 C 
ENDBRANCH  20  21
ENDBRANCH  19  20
ENDBRANCH  18  19
ENDBRANCH  17  18
ENDBRANCH  16  17
ENDBRANCH  12  16
ENDBRANCH   9  12
ENDBRANCH   6   9
ENDBRANCH   3   5
ENDBRANCH   2   3
BRANCH   2  23
ATOM     23  N   UNL     1      17.518  -7.553  -1.422  1.00  0.00    -0.332 N 
ATOM     24  C   UNL     1      18.673  -6.731  -1.095  1.00  0.00     0.147 C 
BRANCH  23  25
ATOM     25  C   UNL     1      16.444  -6.851  -2.177  1.00  0.00     0.174 C 
BRANCH  25  26
ATOM     26  C   UNL     1      15.134  -7.670  -2.262  1.00  0.00     0.038 C 
BRANCH  26  27
ATOM     27  C   UNL     1      13.816  -6.911  -1.989  1.00  0.00    -0.015 C 
ATOM     28  C   UNL     1      13.107  -7.405  -0.728  1.00  0.00     0.007 C 
ATOM     29  C   UNL     1      13.985  -5.394  -1.951  1.00  0.00     0.007 C 
ENDBRANCH  26  27
ENDBRANCH  25  26
BRANCH  25  30
ATOM     30  C   UNL     1      16.977  -6.388  -3.553  1.00  0.00     0.243 C 
ATOM     31  O   UNL     1      17.405  -5.250  -3.734  1.00  0.00    -0.273 OA
ATOM     32  N   UNL     1      16.934  -7.326  -4.552  1.00  0.00    -0.342 N 
ATOM     33  H   UNL     1      16.699  -8.287  -4.290  1.00  0.00     0.164 HD
BRANCH  32  34
ATOM     34  C   UNL     1      17.371  -7.056  -5.924  1.00  0.00     0.175 C 
BRANCH  34  35
ATOM     35  C   UNL     1      18.603  -7.897  -6.294  1.00  0.00     0.070 C 
BRANCH  35  36
ATOM     36  C   UNL     1      18.919  -7.854  -7.772  1.00  0.00    -0.045 A 
ATOM     37  C   UNL     1      18.663  -8.974  -8.577  1.00  0.00     0.007 A 
ATOM     38  C   UNL     1      19.488  -6.713  -8.353  1.00  0.00     0.007 A 
ATOM     39  C   UNL     1      18.964  -8.949  -9.939  1.00  0.00     0.046 A 
ATOM     40  C   UNL     1      19.790  -6.687  -9.716  1.00  0.00     0.046 A 
ATOM     41  C   UNL     1      19.524  -7.806 -10.498  1.00  0.00     0.115 A 
BRANCH  41  42
ATOM     42  O   UNL     1      19.805  -7.823 -11.832  1.00  0.00    -0.508 OA
ATOM     43  H   UNL     1      19.777  -6.909 -12.161  1.00  0.00     0.293 HD
ENDBRANCH  41  42
ENDBRANCH  35  36
ENDBRANCH  34  35
BRANCH  34  44
ATOM     44  C   UNL     1      16.180  -7.332  -6.869  1.00  0.00     0.243 C 
ATOM     45  O   UNL     1      15.694  -6.502  -7.632  1.00  0.00    -0.273 OA
ATOM     46  N   UNL     1      15.612  -8.575  -6.689  1.00  0.00    -0.341 N 
ATOM     47  H   UNL     1      15.978  -9.185  -5.961  1.00  0.00     0.164 HD
BRANCH  46  48
ATOM     48  C   UNL     1      14.431  -9.036  -7.422  1.00  0.00     0.196 C 
BRANCH  48  49
ATOM     49  C   UNL     1      14.712 -10.350  -8.169  1.00  0.00     0.072 C 
BRANCH  49  50
ATOM     50  C   UNL     1      15.229 -10.123  -9.571  1.00  0.00    -0.045 A 
ATOM     51  C   UNL     1      15.072  -8.869 -10.179  1.00  0.00     0.007 A 
ATOM     52  C   UNL     1      15.847 -11.156 -10.288  1.00  0.00     0.007 A 
ATOM     53  C   UNL     1      15.533  -8.652 -11.478  1.00  0.00     0.046 A 
ATOM     54  C   UNL     1      16.307 -10.939 -11.588  1.00  0.00     0.046 A 
ATOM     55  C   UNL     1      16.147  -9.687 -12.172  1.00  0.00     0.115 A 
BRANCH  55  56
ATOM     56  O   UNL     1      16.582  -9.434 -13.440  1.00  0.00    -0.508 OA
ATOM     57  H   UNL     1      15.811  -9.418 -14.030  1.00  0.00     0.293 HD
ENDBRANCH  55  56
ENDBRANCH  49  50
ENDBRANCH  48  49
BRANCH  48  58
ATOM     58  C   UNL     1      13.278  -9.244  -6.430  1.00  0.00     0.326 C 
ATOM     59  O   UNL     1      12.082  -9.212  -6.669  1.00  0.00    -0.250 OA
BRANCH  58  60
ATOM     60  O   UNL     1      13.693  -9.501  -5.164  1.00  0.00    -0.480 OA
ATOM     61  H   UNL     1      12.910  -9.269  -4.618  1.00  0.00     0.296 HD
ENDBRANCH  58  60
ENDBRANCH  48  58
ENDBRANCH  46  48
ENDBRANCH  34  44
ENDBRANCH  32  34
ENDBRANCH  25  30
ENDBRANCH  23  25
ENDBRANCH   2  23
TORSDOF 28
ENDMDL
MODEL 16
REMARK VINA RESULT:    -4.224     21.013     25.309
REMARK INTER + INTRA:         -17.037
REMARK INTER:                 -13.383
REMARK INTRA:                  -3.654
REMARK UNBOUND:                -6.517
REMARK SMILES CCCCCCC[C@H](N)[C@H](O)C(=O)N[C@H](C)C(=O)N(C)[C@H](CC(C)C)C(=O)N[C@@H](Cc1ccc(O)cc1)C(=O)N[C@@H](Cc1ccc(O)cc1)C(=O)O
REMARK SMILES IDX 18 1 17 2 15 3 16 4 14 5 12 6 13 7 10 9 11 10 8 12 9 13 7 16
REMARK SMILES IDX 6 17 5 18 4 19 3 20 2 21 1 22 19 23 20 24 21 25 22 26 23 27
REMARK SMILES IDX 24 28 25 29 26 30 27 31 28 32 29 34 30 35 31 36 32 37 37 38
REMARK SMILES IDX 33 39 36 40 34 41 35 42 38 44 39 45 40 46 41 48 42 49 43 50
REMARK SMILES IDX 44 51 49 52 45 53 48 54 46 55 47 56 50 58 51 59 52 60
REMARK H PARENT 14 8 11 11 9 14 9 15 28 33 35 43 40 47 47 57 52 61
ROOT
ATOM      1  O   UNL     1      -2.015 -11.106   2.809  1.00  0.00    -0.272 OA
ATOM      2  C   UNL     1      -2.522 -11.063   1.678  1.00  0.00     0.245 C 
ENDROOT
BRANCH   2   3
ATOM      3  C   UNL     1      -3.700 -10.087   1.431  1.00  0.00     0.168 C 
ATOM      4  C   UNL     1      -4.313  -9.632   2.751  1.00  0.00     0.041 C 
BRANCH   3   5
ATOM      5  N   UNL     1      -3.389  -8.962   0.562  1.00  0.00    -0.342 N 
ATOM      6  C   UNL     1      -2.843  -7.794   1.050  1.00  0.00     0.251 C 
ATOM      7  O   UNL     1      -2.619  -7.598   2.240  1.00  0.00    -0.272 OA
ATOM      8  H   UNL     1      -3.564  -8.995  -0.440  1.00  0.00     0.164 HD
BRANCH   6   9
ATOM      9  C   UNL     1      -2.468  -6.803  -0.063  1.00  0.00     0.219 C 
BRANCH   9  10
ATOM     10  O   UNL     1      -3.614  -6.197  -0.673  1.00  0.00    -0.382 OA
ATOM     11  H   UNL     1      -4.323  -6.865  -0.548  1.00  0.00     0.211 HD
ENDBRANCH   9  10
BRANCH   9  12
ATOM     12  C   UNL     1      -1.454  -5.723   0.399  1.00  0.00     0.089 C 
BRANCH  12  13
ATOM     13  N   UNL     1      -0.143  -6.019  -0.222  1.00  0.00    -0.325 NA
ATOM     14  H   UNL     1       0.441  -6.521   0.450  1.00  0.00     0.119 HD
ATOM     15  H   UNL     1       0.348  -5.138  -0.394  1.00  0.00     0.119 HD
ENDBRANCH  12  13
BRANCH  12  16
ATOM     16  C   UNL     1      -1.855  -4.255   0.122  1.00  0.00     0.022 C 
BRANCH  16  17
ATOM     17  C   UNL     1      -2.298  -3.368   1.293  1.00  0.00     0.002 C 
BRANCH  17  18
ATOM     18  C   UNL     1      -1.209  -3.065   2.320  1.00  0.00     0.000 C 
BRANCH  18  19
ATOM     19  C   UNL     1      -1.398  -3.785   3.662  1.00  0.00    -0.000 C 
BRANCH  19  20
ATOM     20  C   UNL     1      -0.830  -3.051   4.880  1.00  0.00    -0.000 C 
BRANCH  20  21
ATOM     21  C   UNL     1      -1.532  -3.427   6.188  1.00  0.00    -0.003 C 
ATOM     22  C   UNL     1      -3.028  -3.166   6.109  1.00  0.00     0.004 C 
ENDBRANCH  20  21
ENDBRANCH  19  20
ENDBRANCH  18  19
ENDBRANCH  17  18
ENDBRANCH  16  17
ENDBRANCH  12  16
ENDBRANCH   9  12
ENDBRANCH   6   9
ENDBRANCH   3   5
ENDBRANCH   2   3
BRANCH   2  23
ATOM     23  N   UNL     1      -1.957 -11.787   0.634  1.00  0.00    -0.332 N 
ATOM     24  C   UNL     1      -2.630 -12.856  -0.088  1.00  0.00     0.147 C 
BRANCH  23  25
ATOM     25  C   UNL     1      -0.623 -11.408   0.093  1.00  0.00     0.174 C 
BRANCH  25  26
ATOM     26  C   UNL     1      -0.498 -11.656  -1.429  1.00  0.00     0.038 C 
BRANCH  26  27
ATOM     27  C   UNL     1       0.287 -10.606  -2.246  1.00  0.00    -0.015 C 
ATOM     28  C   UNL     1       1.718 -11.051  -2.547  1.00  0.00     0.007 C 
ATOM     29  C   UNL     1      -0.423 -10.179  -3.528  1.00  0.00     0.007 C 
ENDBRANCH  26  27
ENDBRANCH  25  26
BRANCH  25  30
ATOM     30  C   UNL     1       0.497 -12.075   0.925  1.00  0.00     0.243 C 
ATOM     31  O   UNL     1       1.083 -13.084   0.535  1.00  0.00    -0.273 OA
ATOM     32  N   UNL     1       0.786 -11.471   2.121  1.00  0.00    -0.342 N 
ATOM     33  H   UNL     1       0.358 -10.561   2.309  1.00  0.00     0.164 HD
BRANCH  32  34
ATOM     34  C   UNL     1       1.798 -11.979   3.052  1.00  0.00     0.175 C 
BRANCH  34  35
ATOM     35  C   UNL     1       2.937 -10.966   3.245  1.00  0.00     0.070 C 
BRANCH  35  36
ATOM     36  C   UNL     1       3.448 -10.403   1.938  1.00  0.00    -0.045 A 
ATOM     37  C   UNL     1       3.243  -9.049   1.630  1.00  0.00     0.007 A 
ATOM     38  C   UNL     1       4.107 -11.220   1.011  1.00  0.00     0.007 A 
ATOM     39  C   UNL     1       3.698  -8.523   0.421  1.00  0.00     0.046 A 
ATOM     40  C   UNL     1       4.561 -10.695  -0.201  1.00  0.00     0.046 A 
ATOM     41  C   UNL     1       4.353  -9.349  -0.484  1.00  0.00     0.115 A 
BRANCH  41  42
ATOM     42  O   UNL     1       4.779  -8.796  -1.656  1.00  0.00    -0.508 OA
ATOM     43  H   UNL     1       5.309  -8.009  -1.446  1.00  0.00     0.293 HD
ENDBRANCH  41  42
ENDBRANCH  35  36
ENDBRANCH  34  35
BRANCH  34  44
ATOM     44  C   UNL     1       1.095 -12.319   4.385  1.00  0.00     0.243 C 
ATOM     45  O   UNL     1       1.552 -12.063   5.495  1.00  0.00    -0.273 OA
ATOM     46  N   UNL     1      -0.052 -13.067   4.225  1.00  0.00    -0.341 N 
ATOM     47  H   UNL     1      -0.328 -13.355   3.289  1.00  0.00     0.164 HD
BRANCH  46  48
ATOM     48  C   UNL     1      -0.852 -13.566   5.346  1.00  0.00     0.196 C 
BRANCH  48  49
ATOM     49  C   UNL     1      -2.333 -13.708   4.958  1.00  0.00     0.072 C 
BRANCH  49  50
ATOM     50  C   UNL     1      -3.230 -12.767   5.729  1.00  0.00    -0.045 A 
ATOM     51  C   UNL     1      -4.551 -13.139   6.017  1.00  0.00     0.007 A 
ATOM     52  C   UNL     1      -2.769 -11.512   6.146  1.00  0.00     0.007 A 
ATOM     53  C   UNL     1      -5.392 -12.273   6.717  1.00  0.00     0.046 A 
ATOM     54  C   UNL     1      -3.611 -10.644   6.846  1.00  0.00     0.046 A 
ATOM     55  C   UNL     1      -4.916 -11.033   7.126  1.00  0.00     0.115 A 
BRANCH  55  56
ATOM     56  O   UNL     1      -5.770 -10.216   7.805  1.00  0.00    -0.508 OA
ATOM     57  H   UNL     1      -6.496 -10.756   8.156  1.00  0.00     0.293 HD
ENDBRANCH  55  56
ENDBRANCH  49  50
ENDBRANCH  48  49
BRANCH  48  58
ATOM     58  C   UNL     1      -0.301 -14.930   5.784  1.00  0.00     0.326 C 
ATOM     59  O   UNL     1      -0.239 -15.372   6.920  1.00  0.00    -0.250 OA
BRANCH  58  60
ATOM     60  O   UNL     1       0.140 -15.692   4.752  1.00  0.00    -0.480 OA
ATOM     61  H   UNL     1       1.028 -15.320   4.560  1.00  0.00     0.296 HD
ENDBRANCH  58  60
ENDBRANCH  48  58
ENDBRANCH  46  48
ENDBRANCH  34  44
ENDBRANCH  32  34
ENDBRANCH  25  30
ENDBRANCH  23  25
ENDBRANCH   2  23
TORSDOF 28
ENDMDL
MODEL 17
REMARK VINA RESULT:    -4.213     12.302     17.078
REMARK INTER + INTRA:         -17.010
REMARK INTER:                 -10.161
REMARK INTRA:                  -6.849
REMARK UNBOUND:                -6.517
REMARK SMILES CCCCCCC[C@H](N)[C@H](O)C(=O)N[C@H](C)C(=O)N(C)[C@H](CC(C)C)C(=O)N[C@@H](Cc1ccc(O)cc1)C(=O)N[C@@H](Cc1ccc(O)cc1)C(=O)O
REMARK SMILES IDX 18 1 17 2 15 3 16 4 14 5 12 6 13 7 10 9 11 10 8 12 9 13 7 16
REMARK SMILES IDX 6 17 5 18 4 19 3 20 2 21 1 22 19 23 20 24 21 25 22 26 23 27
REMARK SMILES IDX 24 28 25 29 26 30 27 31 28 32 29 34 30 35 31 36 32 37 37 38
REMARK SMILES IDX 33 39 36 40 34 41 35 42 38 44 39 45 40 46 41 48 42 49 43 50
REMARK SMILES IDX 44 51 49 52 45 53 48 54 46 55 47 56 50 58 51 59 52 60
REMARK H PARENT 14 8 11 11 9 14 9 15 28 33 35 43 40 47 47 57 52 61
ROOT
ATOM      1  O   UNL     1      16.249 -11.047   0.582  1.00  0.00    -0.272 OA
ATOM      2  C   UNL     1      15.083 -11.306   0.916  1.00  0.00     0.245 C 
ENDROOT
BRANCH   2   3
ATOM      3  C   UNL     1      14.117 -11.881  -0.150  1.00  0.00     0.168 C 
ATOM      4  C   UNL     1      12.666 -11.707   0.284  1.00  0.00     0.041 C 
BRANCH   3   5
ATOM      5  N   UNL     1      14.340 -11.394  -1.503  1.00  0.00    -0.342 N 
ATOM      6  C   UNL     1      14.538 -12.254  -2.562  1.00  0.00     0.251 C 
ATOM      7  O   UNL     1      14.583 -13.474  -2.444  1.00  0.00    -0.272 OA
ATOM      8  H   UNL     1      14.359 -10.400  -1.718  1.00  0.00     0.164 HD
BRANCH   6   9
ATOM      9  C   UNL     1      14.609 -11.525  -3.914  1.00  0.00     0.219 C 
BRANCH   9  10
ATOM     10  O   UNL     1      15.606 -12.072  -4.785  1.00  0.00    -0.382 OA
ATOM     11  H   UNL     1      15.083 -12.464  -5.518  1.00  0.00     0.211 HD
ENDBRANCH   9  10
BRANCH   9  12
ATOM     12  C   UNL     1      13.237 -11.439  -4.632  1.00  0.00     0.089 C 
BRANCH  12  13
ATOM     13  N   UNL     1      12.271 -12.287  -3.897  1.00  0.00    -0.325 NA
ATOM     14  H   UNL     1      12.123 -11.896  -2.965  1.00  0.00     0.119 HD
ATOM     15  H   UNL     1      12.690 -13.206  -3.738  1.00  0.00     0.119 HD
ENDBRANCH  12  13
BRANCH  12  16
ATOM     16  C   UNL     1      12.659 -10.017  -4.823  1.00  0.00     0.022 C 
BRANCH  16  17
ATOM     17  C   UNL     1      13.003  -9.235  -6.098  1.00  0.00     0.002 C 
BRANCH  17  18
ATOM     18  C   UNL     1      12.251  -7.917  -6.269  1.00  0.00     0.000 C 
BRANCH  18  19
ATOM     19  C   UNL     1      12.972  -6.898  -7.162  1.00  0.00    -0.000 C 
BRANCH  19  20
ATOM     20  C   UNL     1      13.829  -5.872  -6.415  1.00  0.00    -0.000 C 
BRANCH  20  21
ATOM     21  C   UNL     1      13.878  -6.116  -4.905  1.00  0.00    -0.003 C 
ATOM     22  C   UNL     1      15.136  -5.526  -4.288  1.00  0.00     0.004 C 
ENDBRANCH  20  21
ENDBRANCH  19  20
ENDBRANCH  18  19
ENDBRANCH  17  18
ENDBRANCH  16  17
ENDBRANCH  12  16
ENDBRANCH   9  12
ENDBRANCH   6   9
ENDBRANCH   3   5
ENDBRANCH   2   3
BRANCH   2  23
ATOM     23  N   UNL     1      14.700 -11.194   2.248  1.00  0.00    -0.332 N 
ATOM     24  C   UNL     1      14.564 -12.317   3.165  1.00  0.00     0.147 C 
BRANCH  23  25
ATOM     25  C   UNL     1      14.523  -9.853   2.869  1.00  0.00     0.174 C 
BRANCH  25  26
ATOM     26  C   UNL     1      13.553  -9.870   4.073  1.00  0.00     0.038 C 
BRANCH  26  27
ATOM     27  C   UNL     1      13.915  -8.973   5.278  1.00  0.00    -0.015 C 
ATOM     28  C   UNL     1      13.031  -9.243   6.495  1.00  0.00     0.007 C 
ATOM     29  C   UNL     1      15.391  -9.039   5.662  1.00  0.00     0.007 C 
ENDBRANCH  26  27
ENDBRANCH  25  26
BRANCH  25  30
ATOM     30  C   UNL     1      14.155  -8.811   1.789  1.00  0.00     0.243 C 
ATOM     31  O   UNL     1      13.001  -8.413   1.636  1.00  0.00    -0.273 OA
ATOM     32  N   UNL     1      15.195  -8.368   1.012  1.00  0.00    -0.342 N 
ATOM     33  H   UNL     1      16.142  -8.637   1.291  1.00  0.00     0.164 HD
BRANCH  32  34
ATOM     34  C   UNL     1      15.027  -7.402  -0.077  1.00  0.00     0.175 C 
BRANCH  34  35
ATOM     35  C   UNL     1      15.888  -6.150   0.149  1.00  0.00     0.070 C 
BRANCH  35  36
ATOM     36  C   UNL     1      15.065  -4.887   0.263  1.00  0.00    -0.045 A 
ATOM     37  C   UNL     1      15.046  -4.168   1.468  1.00  0.00     0.007 A 
ATOM     38  C   UNL     1      14.297  -4.430  -0.816  1.00  0.00     0.007 A 
ATOM     39  C   UNL     1      14.279  -3.009   1.587  1.00  0.00     0.046 A 
ATOM     40  C   UNL     1      13.527  -3.270  -0.697  1.00  0.00     0.046 A 
ATOM     41  C   UNL     1      13.526  -2.569   0.504  1.00  0.00     0.115 A 
BRANCH  41  42
ATOM     42  O   UNL     1      12.788  -1.434   0.663  1.00  0.00    -0.508 OA
ATOM     43  H   UNL     1      12.468  -1.404   1.580  1.00  0.00     0.293 HD
ENDBRANCH  41  42
ENDBRANCH  35  36
ENDBRANCH  34  35
BRANCH  34  44
ATOM     44  C   UNL     1      15.378  -8.112  -1.404  1.00  0.00     0.243 C 
ATOM     45  O   UNL     1      14.557  -8.421  -2.263  1.00  0.00    -0.273 OA
ATOM     46  N   UNL     1      16.700  -8.494  -1.490  1.00  0.00    -0.341 N 
ATOM     47  H   UNL     1      17.317  -8.319  -0.701  1.00  0.00     0.164 HD
BRANCH  46  48
ATOM     48  C   UNL     1      17.251  -9.240  -2.623  1.00  0.00     0.196 C 
BRANCH  48  49
ATOM     49  C   UNL     1      18.273  -8.398  -3.405  1.00  0.00     0.072 C 
BRANCH  49  50
ATOM     50  C   UNL     1      17.806  -8.068  -4.804  1.00  0.00    -0.045 A 
ATOM     51  C   UNL     1      18.345  -6.963  -5.478  1.00  0.00     0.007 A 
ATOM     52  C   UNL     1      16.823  -8.840  -5.437  1.00  0.00     0.007 A 
ATOM     53  C   UNL     1      17.913  -6.641  -6.765  1.00  0.00     0.046 A 
ATOM     54  C   UNL     1      16.389  -8.516  -6.724  1.00  0.00     0.046 A 
ATOM     55  C   UNL     1      16.939  -7.419  -7.378  1.00  0.00     0.115 A 
BRANCH  55  56
ATOM     56  O   UNL     1      16.542  -7.070  -8.635  1.00  0.00    -0.508 OA
ATOM     57  H   UNL     1      17.168  -7.453  -9.271  1.00  0.00     0.293 HD
ENDBRANCH  55  56
ENDBRANCH  49  50
ENDBRANCH  48  49
BRANCH  48  58
ATOM     58  C   UNL     1      17.927 -10.515  -2.099  1.00  0.00     0.326 C 
ATOM     59  O   UNL     1      17.929 -11.619  -2.620  1.00  0.00    -0.250 OA
BRANCH  58  60
ATOM     60  O   UNL     1      18.594 -10.333  -0.932  1.00  0.00    -0.480 OA
ATOM     61  H   UNL     1      19.480 -10.714  -1.116  1.00  0.00     0.296 HD
ENDBRANCH  58  60
ENDBRANCH  48  58
ENDBRANCH  46  48
ENDBRANCH  34  44
ENDBRANCH  32  34
ENDBRANCH  25  30
ENDBRANCH  23  25
ENDBRANCH   2  23
TORSDOF 28
ENDMDL
MODEL 18
REMARK VINA RESULT:    -4.201     12.276     17.353
REMARK INTER + INTRA:         -16.981
REMARK INTER:                  -9.719
REMARK INTRA:                  -7.262
REMARK UNBOUND:                -6.517
REMARK SMILES CCCCCCC[C@H](N)[C@H](O)C(=O)N[C@H](C)C(=O)N(C)[C@H](CC(C)C)C(=O)N[C@@H](Cc1ccc(O)cc1)C(=O)N[C@@H](Cc1ccc(O)cc1)C(=O)O
REMARK SMILES IDX 18 1 17 2 15 3 16 4 14 5 12 6 13 7 10 9 11 10 8 12 9 13 7 16
REMARK SMILES IDX 6 17 5 18 4 19 3 20 2 21 1 22 19 23 20 24 21 25 22 26 23 27
REMARK SMILES IDX 24 28 25 29 26 30 27 31 28 32 29 34 30 35 31 36 32 37 37 38
REMARK SMILES IDX 33 39 36 40 34 41 35 42 38 44 39 45 40 46 41 48 42 49 43 50
REMARK SMILES IDX 44 51 49 52 45 53 48 54 46 55 47 56 50 58 51 59 52 60
REMARK H PARENT 14 8 11 11 9 14 9 15 28 33 35 43 40 47 47 57 52 61
ROOT
ATOM      1  O   UNL     1      15.727 -11.139  -6.830  1.00  0.00    -0.272 OA
ATOM      2  C   UNL     1      14.968 -10.470  -7.547  1.00  0.00     0.245 C 
ENDROOT
BRANCH   2   3
ATOM      3  C   UNL     1      13.458 -10.819  -7.556  1.00  0.00     0.168 C 
ATOM      4  C   UNL     1      13.177 -11.987  -8.495  1.00  0.00     0.041 C 
BRANCH   3   5
ATOM      5  N   UNL     1      12.872 -11.028  -6.241  1.00  0.00    -0.342 N 
ATOM      6  C   UNL     1      12.165 -10.037  -5.593  1.00  0.00     0.251 C 
ATOM      7  O   UNL     1      12.012  -8.908  -6.048  1.00  0.00    -0.272 OA
ATOM      8  H   UNL     1      12.962 -11.913  -5.748  1.00  0.00     0.164 HD
BRANCH   6   9
ATOM      9  C   UNL     1      11.518 -10.525  -4.287  1.00  0.00     0.219 C 
BRANCH   9  10
ATOM     10  O   UNL     1      12.246 -10.114  -3.123  1.00  0.00    -0.382 OA
ATOM     11  H   UNL     1      12.619 -10.953  -2.775  1.00  0.00     0.211 HD
ENDBRANCH   9  10
BRANCH   9  12
ATOM     12  C   UNL     1      10.021 -10.137  -4.167  1.00  0.00     0.089 C 
BRANCH  12  13
ATOM     13  N   UNL     1       9.215 -11.379  -4.167  1.00  0.00    -0.325 NA
ATOM     14  H   UNL     1       9.034 -11.662  -3.202  1.00  0.00     0.119 HD
ATOM     15  H   UNL     1       9.774 -12.137  -4.566  1.00  0.00     0.119 HD
ENDBRANCH  12  13
BRANCH  12  16
ATOM     16  C   UNL     1       9.644  -9.259  -2.950  1.00  0.00     0.022 C 
BRANCH  16  17
ATOM     17  C   UNL     1      10.051  -7.779  -2.942  1.00  0.00     0.002 C 
BRANCH  17  18
ATOM     18  C   UNL     1      10.283  -7.181  -1.556  1.00  0.00     0.000 C 
BRANCH  18  19
ATOM     19  C   UNL     1       9.452  -7.839  -0.445  1.00  0.00    -0.000 C 
BRANCH  19  20
ATOM     20  C   UNL     1       8.100  -7.175  -0.165  1.00  0.00    -0.000 C 
BRANCH  20  21
ATOM     21  C   UNL     1       7.004  -8.180   0.200  1.00  0.00    -0.003 C 
ATOM     22  C   UNL     1       6.470  -8.891  -1.033  1.00  0.00     0.004 C 
ENDBRANCH  20  21
ENDBRANCH  19  20
ENDBRANCH  18  19
ENDBRANCH  17  18
ENDBRANCH  16  17
ENDBRANCH  12  16
ENDBRANCH   9  12
ENDBRANCH   6   9
ENDBRANCH   3   5
ENDBRANCH   2   3
BRANCH   2  23
ATOM     23  N   UNL     1      15.453  -9.358  -8.227  1.00  0.00    -0.332 N 
ATOM     24  C   UNL     1      16.541  -9.391  -9.193  1.00  0.00     0.147 C 
BRANCH  23  25
ATOM     25  C   UNL     1      14.774  -8.040  -8.092  1.00  0.00     0.174 C 
BRANCH  25  26
ATOM     26  C   UNL     1      14.832  -7.198  -9.388  1.00  0.00     0.038 C 
BRANCH  26  27
ATOM     27  C   UNL     1      13.481  -6.782 -10.014  1.00  0.00    -0.015 C 
ATOM     28  C   UNL     1      13.482  -6.902 -11.537  1.00  0.00     0.007 C 
ATOM     29  C   UNL     1      12.284  -7.518  -9.417  1.00  0.00     0.007 C 
ENDBRANCH  26  27
ENDBRANCH  25  26
BRANCH  25  30
ATOM     30  C   UNL     1      15.301  -7.296  -6.844  1.00  0.00     0.243 C 
ATOM     31  O   UNL     1      16.264  -6.532  -6.900  1.00  0.00    -0.273 OA
ATOM     32  N   UNL     1      14.630  -7.549  -5.675  1.00  0.00    -0.342 N 
ATOM     33  H   UNL     1      13.758  -8.082  -5.736  1.00  0.00     0.164 HD
BRANCH  32  34
ATOM     34  C   UNL     1      15.005  -6.955  -4.390  1.00  0.00     0.175 C 
BRANCH  34  35
ATOM     35  C   UNL     1      13.766  -6.630  -3.541  1.00  0.00     0.070 C 
BRANCH  35  36
ATOM     36  C   UNL     1      14.013  -5.517  -2.547  1.00  0.00    -0.045 A 
ATOM     37  C   UNL     1      15.320  -5.237  -2.118  1.00  0.00     0.007 A 
ATOM     38  C   UNL     1      12.949  -4.769  -2.026  1.00  0.00     0.007 A 
ATOM     39  C   UNL     1      15.556  -4.221  -1.191  1.00  0.00     0.046 A 
ATOM     40  C   UNL     1      13.185  -3.753  -1.097  1.00  0.00     0.046 A 
ATOM     41  C   UNL     1      14.488  -3.487  -0.689  1.00  0.00     0.115 A 
BRANCH  41  42
ATOM     42  O   UNL     1      14.762  -2.506   0.217  1.00  0.00    -0.508 OA
ATOM     43  H   UNL     1      14.989  -1.696  -0.270  1.00  0.00     0.293 HD
ENDBRANCH  41  42
ENDBRANCH  35  36
ENDBRANCH  34  35
BRANCH  34  44
ATOM     44  C   UNL     1      15.958  -7.935  -3.669  1.00  0.00     0.243 C 
ATOM     45  O   UNL     1      17.183  -7.872  -3.716  1.00  0.00    -0.273 OA
ATOM     46  N   UNL     1      15.306  -8.986  -3.060  1.00  0.00    -0.341 N 
ATOM     47  H   UNL     1      14.295  -9.058  -3.148  1.00  0.00     0.164 HD
BRANCH  46  48
ATOM     48  C   UNL     1      16.002 -10.077  -2.373  1.00  0.00     0.196 C 
BRANCH  48  49
ATOM     49  C   UNL     1      15.355 -10.385  -1.013  1.00  0.00     0.072 C 
BRANCH  49  50
ATOM     50  C   UNL     1      15.064  -9.137  -0.211  1.00  0.00    -0.045 A 
ATOM     51  C   UNL     1      13.741  -8.697  -0.057  1.00  0.00     0.007 A 
ATOM     52  C   UNL     1      16.101  -8.394   0.368  1.00  0.00     0.007 A 
ATOM     53  C   UNL     1      13.462  -7.540   0.670  1.00  0.00     0.046 A 
ATOM     54  C   UNL     1      15.821  -7.234   1.094  1.00  0.00     0.046 A 
ATOM     55  C   UNL     1      14.503  -6.817   1.240  1.00  0.00     0.115 A 
BRANCH  55  56
ATOM     56  O   UNL     1      14.188  -5.691   1.940  1.00  0.00    -0.508 OA
ATOM     57  H   UNL     1      14.900  -5.516   2.576  1.00  0.00     0.293 HD
ENDBRANCH  55  56
ENDBRANCH  49  50
ENDBRANCH  48  49
BRANCH  48  58
ATOM     58  C   UNL     1      15.961 -11.331  -3.258  1.00  0.00     0.326 C 
ATOM     59  O   UNL     1      16.809 -12.205  -3.341  1.00  0.00    -0.250 OA
BRANCH  58  60
ATOM     60  O   UNL     1      14.829 -11.433  -3.999  1.00  0.00    -0.480 OA
ATOM     61  H   UNL     1      14.262 -10.713  -3.648  1.00  0.00     0.296 HD
ENDBRANCH  58  60
ENDBRANCH  48  58
ENDBRANCH  46  48
ENDBRANCH  34  44
ENDBRANCH  32  34
ENDBRANCH  25  30
ENDBRANCH  23  25
ENDBRANCH   2  23
TORSDOF 28
ENDMDL
MODEL 19
REMARK VINA RESULT:    -4.194     20.053     24.146
REMARK INTER + INTRA:         -16.963
REMARK INTER:                 -13.545
REMARK INTRA:                  -3.418
REMARK UNBOUND:                -6.517
REMARK SMILES CCCCCCC[C@H](N)[C@H](O)C(=O)N[C@H](C)C(=O)N(C)[C@H](CC(C)C)C(=O)N[C@@H](Cc1ccc(O)cc1)C(=O)N[C@@H](Cc1ccc(O)cc1)C(=O)O
REMARK SMILES IDX 18 1 17 2 15 3 16 4 14 5 12 6 13 7 10 9 11 10 8 12 9 13 7 16
REMARK SMILES IDX 6 17 5 18 4 19 3 20 2 21 1 22 19 23 20 24 21 25 22 26 23 27
REMARK SMILES IDX 24 28 25 29 26 30 27 31 28 32 29 34 30 35 31 36 32 37 37 38
REMARK SMILES IDX 33 39 36 40 34 41 35 42 38 44 39 45 40 46 41 48 42 49 43 50
REMARK SMILES IDX 44 51 49 52 45 53 48 54 46 55 47 56 50 58 51 59 52 60
REMARK H PARENT 14 8 11 11 9 14 9 15 28 33 35 43 40 47 47 57 52 61
ROOT
ATOM      1  O   UNL     1      -2.090 -11.237   2.783  1.00  0.00    -0.272 OA
ATOM      2  C   UNL     1      -2.726 -11.303   1.720  1.00  0.00     0.245 C 
ENDROOT
BRANCH   2   3
ATOM      3  C   UNL     1      -3.828 -10.248   1.450  1.00  0.00     0.168 C 
ATOM      4  C   UNL     1      -4.444  -9.761   2.757  1.00  0.00     0.041 C 
BRANCH   3   5
ATOM      5  N   UNL     1      -3.419  -9.142   0.598  1.00  0.00    -0.342 N 
ATOM      6  C   UNL     1      -2.852  -7.996   1.115  1.00  0.00     0.251 C 
ATOM      7  O   UNL     1      -2.689  -7.804   2.315  1.00  0.00    -0.272 OA
ATOM      8  H   UNL     1      -3.536  -9.171  -0.412  1.00  0.00     0.164 HD
BRANCH   6   9
ATOM      9  C   UNL     1      -2.370  -7.027   0.023  1.00  0.00     0.219 C 
BRANCH   9  10
ATOM     10  O   UNL     1      -3.432  -6.232  -0.518  1.00  0.00    -0.382 OA
ATOM     11  H   UNL     1      -4.150  -6.883  -0.676  1.00  0.00     0.211 HD
ENDBRANCH   9  10
BRANCH   9  12
ATOM     12  C   UNL     1      -1.190  -6.131   0.482  1.00  0.00     0.089 C 
BRANCH  12  13
ATOM     13  N   UNL     1      -0.065  -6.320  -0.462  1.00  0.00    -0.325 NA
ATOM     14  H   UNL     1      -0.337  -6.998  -1.177  1.00  0.00     0.119 HD
ATOM     15  H   UNL     1       0.715  -6.755   0.035  1.00  0.00     0.119 HD
ENDBRANCH  12  13
BRANCH  12  16
ATOM     16  C   UNL     1      -1.504  -4.624   0.641  1.00  0.00     0.022 C 
BRANCH  16  17
ATOM     17  C   UNL     1      -1.870  -4.080   2.028  1.00  0.00     0.002 C 
BRANCH  17  18
ATOM     18  C   UNL     1      -1.086  -2.843   2.462  1.00  0.00     0.000 C 
BRANCH  18  19
ATOM     19  C   UNL     1      -0.806  -2.778   3.970  1.00  0.00    -0.000 C 
BRANCH  19  20
ATOM     20  C   UNL     1      -0.963  -4.105   4.718  1.00  0.00    -0.000 C 
BRANCH  20  21
ATOM     21  C   UNL     1      -0.071  -4.203   5.958  1.00  0.00    -0.003 C 
ATOM     22  C   UNL     1       0.553  -2.860   6.300  1.00  0.00     0.004 C 
ENDBRANCH  20  21
ENDBRANCH  19  20
ENDBRANCH  18  19
ENDBRANCH  17  18
ENDBRANCH  16  17
ENDBRANCH  12  16
ENDBRANCH   9  12
ENDBRANCH   6   9
ENDBRANCH   3   5
ENDBRANCH   2   3
BRANCH   2  23
ATOM     23  N   UNL     1      -2.364 -12.231   0.750  1.00  0.00    -0.332 N 
ATOM     24  C   UNL     1      -2.831 -13.608   0.709  1.00  0.00     0.147 C 
BRANCH  23  25
ATOM     25  C   UNL     1      -1.544 -11.812  -0.420  1.00  0.00     0.174 C 
BRANCH  25  26
ATOM     26  C   UNL     1      -1.716 -12.746  -1.641  1.00  0.00     0.038 C 
BRANCH  26  27
ATOM     27  C   UNL     1      -2.053 -12.076  -2.992  1.00  0.00    -0.015 C 
ATOM     28  C   UNL     1      -1.071 -10.962  -3.354  1.00  0.00     0.007 C 
ATOM     29  C   UNL     1      -2.188 -13.068  -4.145  1.00  0.00     0.007 C 
ENDBRANCH  26  27
ENDBRANCH  25  26
BRANCH  25  30
ATOM     30  C   UNL     1      -0.071 -11.613   0.006  1.00  0.00     0.243 C 
ATOM     31  O   UNL     1       0.507 -10.536  -0.138  1.00  0.00    -0.273 OA
ATOM     32  N   UNL     1       0.544 -12.712   0.546  1.00  0.00    -0.342 N 
ATOM     33  H   UNL     1      -0.040 -13.524   0.763  1.00  0.00     0.164 HD
BRANCH  32  34
ATOM     34  C   UNL     1       1.944 -12.715   0.980  1.00  0.00     0.175 C 
BRANCH  34  35
ATOM     35  C   UNL     1       2.902 -12.719  -0.221  1.00  0.00     0.070 C 
BRANCH  35  36
ATOM     36  C   UNL     1       2.336 -13.451  -1.417  1.00  0.00    -0.045 A 
ATOM     37  C   UNL     1       2.126 -12.765  -2.624  1.00  0.00     0.007 A 
ATOM     38  C   UNL     1       1.994 -14.807  -1.335  1.00  0.00     0.007 A 
ATOM     39  C   UNL     1       1.592 -13.428  -3.729  1.00  0.00     0.046 A 
ATOM     40  C   UNL     1       1.458 -15.471  -2.441  1.00  0.00     0.046 A 
ATOM     41  C   UNL     1       1.263 -14.774  -3.630  1.00  0.00     0.115 A 
BRANCH  41  42
ATOM     42  O   UNL     1       0.740 -15.384  -4.732  1.00  0.00    -0.508 OA
ATOM     43  H   UNL     1       0.936 -16.334  -4.676  1.00  0.00     0.293 HD
ENDBRANCH  41  42
ENDBRANCH  35  36
ENDBRANCH  34  35
BRANCH  34  44
ATOM     44  C   UNL     1       2.165 -11.486   1.891  1.00  0.00     0.243 C 
ATOM     45  O   UNL     1       1.580 -11.296   2.954  1.00  0.00    -0.273 OA
ATOM     46  N   UNL     1       2.997 -10.536   1.338  1.00  0.00    -0.341 N 
ATOM     47  H   UNL     1       3.366 -10.687   0.402  1.00  0.00     0.164 HD
BRANCH  46  48
ATOM     48  C   UNL     1       3.302  -9.258   1.984  1.00  0.00     0.196 C 
BRANCH  48  49
ATOM     49  C   UNL     1       4.604  -9.338   2.799  1.00  0.00     0.072 C 
BRANCH  49  50
ATOM     50  C   UNL     1       4.458  -8.757   4.187  1.00  0.00    -0.045 A 
ATOM     51  C   UNL     1       3.972  -9.557   5.232  1.00  0.00     0.007 A 
ATOM     52  C   UNL     1       4.782  -7.419   4.447  1.00  0.00     0.007 A 
ATOM     53  C   UNL     1       3.821  -9.028   6.514  1.00  0.00     0.046 A 
ATOM     54  C   UNL     1       4.629  -6.890   5.730  1.00  0.00     0.046 A 
ATOM     55  C   UNL     1       4.151  -7.700   6.754  1.00  0.00     0.115 A 
BRANCH  55  56
ATOM     56  O   UNL     1       3.986  -7.222   8.020  1.00  0.00    -0.508 OA
ATOM     57  H   UNL     1       3.427  -6.430   7.978  1.00  0.00     0.293 HD
ENDBRANCH  55  56
ENDBRANCH  49  50
ENDBRANCH  48  49
BRANCH  48  58
ATOM     58  C   UNL     1       3.435  -8.173   0.906  1.00  0.00     0.326 C 
ATOM     59  O   UNL     1       4.378  -7.419   0.729  1.00  0.00    -0.250 OA
BRANCH  58  60
ATOM     60  O   UNL     1       2.362  -8.097   0.079  1.00  0.00    -0.480 OA
ATOM     61  H   UNL     1       2.660  -7.476  -0.621  1.00  0.00     0.296 HD
ENDBRANCH  58  60
ENDBRANCH  48  58
ENDBRANCH  46  48
ENDBRANCH  34  44
ENDBRANCH  32  34
ENDBRANCH  25  30
ENDBRANCH  23  25
ENDBRANCH   2  23
TORSDOF 28
ENDMDL
MODEL 20
REMARK VINA RESULT:    -4.155     13.310     16.975
REMARK INTER + INTRA:         -16.866
REMARK INTER:                  -9.620
REMARK INTRA:                  -7.246
REMARK UNBOUND:                -6.517
REMARK SMILES CCCCCCC[C@H](N)[C@H](O)C(=O)N[C@H](C)C(=O)N(C)[C@H](CC(C)C)C(=O)N[C@@H](Cc1ccc(O)cc1)C(=O)N[C@@H](Cc1ccc(O)cc1)C(=O)O
REMARK SMILES IDX 18 1 17 2 15 3 16 4 14 5 12 6 13 7 10 9 11 10 8 12 9 13 7 16
REMARK SMILES IDX 6 17 5 18 4 19 3 20 2 21 1 22 19 23 20 24 21 25 22 26 23 27
REMARK SMILES IDX 24 28 25 29 26 30 27 31 28 32 29 34 30 35 31 36 32 37 37 38
REMARK SMILES IDX 33 39 36 40 34 41 35 42 38 44 39 45 40 46 41 48 42 49 43 50
REMARK SMILES IDX 44 51 49 52 45 53 48 54 46 55 47 56 50 58 51 59 52 60
REMARK H PARENT 14 8 11 11 9 14 9 15 28 33 35 43 40 47 47 57 52 61
ROOT
ATOM      1  O   UNL     1      16.352 -10.018  -1.760  1.00  0.00    -0.272 OA
ATOM      2  C   UNL     1      16.347  -8.778  -1.772  1.00  0.00     0.245 C 
ENDROOT
BRANCH   2   3
ATOM      3  C   UNL     1      17.335  -8.043  -2.712  1.00  0.00     0.168 C 
ATOM      4  C   UNL     1      18.759  -8.124  -2.172  1.00  0.00     0.041 C 
BRANCH   3   5
ATOM      5  N   UNL     1      17.261  -8.443  -4.109  1.00  0.00    -0.342 N 
ATOM      6  C   UNL     1      16.613  -7.675  -5.053  1.00  0.00     0.251 C 
ATOM      7  O   UNL     1      16.021  -6.634  -4.787  1.00  0.00    -0.272 OA
ATOM      8  H   UNL     1      17.685  -9.305  -4.443  1.00  0.00     0.164 HD
BRANCH   6   9
ATOM      9  C   UNL     1      16.785  -8.217  -6.481  1.00  0.00     0.219 C 
BRANCH   9  10
ATOM     10  O   UNL     1      15.962  -9.360  -6.740  1.00  0.00    -0.382 OA
ATOM     11  H   UNL     1      16.112  -9.935  -5.958  1.00  0.00     0.211 HD
ENDBRANCH   9  10
BRANCH   9  12
ATOM     12  C   UNL     1      16.583  -7.133  -7.572  1.00  0.00     0.089 C 
BRANCH  12  13
ATOM     13  N   UNL     1      17.719  -7.208  -8.520  1.00  0.00    -0.325 NA
ATOM     14  H   UNL     1      18.521  -6.716  -8.122  1.00  0.00     0.119 HD
ATOM     15  H   UNL     1      17.478  -6.685  -9.366  1.00  0.00     0.119 HD
ENDBRANCH  12  13
BRANCH  12  16
ATOM     16  C   UNL     1      15.243  -7.189  -8.343  1.00  0.00     0.022 C 
BRANCH  16  17
ATOM     17  C   UNL     1      15.214  -7.808  -9.747  1.00  0.00     0.002 C 
BRANCH  17  18
ATOM     18  C   UNL     1      14.666  -6.895 -10.842  1.00  0.00     0.000 C 
BRANCH  18  19
ATOM     19  C   UNL     1      13.136  -6.908 -10.959  1.00  0.00    -0.000 C 
BRANCH  19  20
ATOM     20  C   UNL     1      12.538  -8.197 -11.530  1.00  0.00    -0.000 C 
BRANCH  20  21
ATOM     21  C   UNL     1      12.693  -8.308 -13.049  1.00  0.00    -0.003 C 
ATOM     22  C   UNL     1      11.912  -7.219 -13.767  1.00  0.00     0.004 C 
ENDBRANCH  20  21
ENDBRANCH  19  20
ENDBRANCH  18  19
ENDBRANCH  17  18
ENDBRANCH  16  17
ENDBRANCH  12  16
ENDBRANCH   9  12
ENDBRANCH   6   9
ENDBRANCH   3   5
ENDBRANCH   2   3
BRANCH   2  23
ATOM     23  N   UNL     1      15.389  -8.079  -1.046  1.00  0.00    -0.332 N 
ATOM     24  C   UNL     1      15.248  -8.133   0.401  1.00  0.00     0.147 C 
BRANCH  23  25
ATOM     25  C   UNL     1      14.499  -7.099  -1.727  1.00  0.00     0.174 C 
BRANCH  25  26
ATOM     26  C   UNL     1      14.037  -5.956  -0.793  1.00  0.00     0.038 C 
BRANCH  26  27
ATOM     27  C   UNL     1      13.767  -4.583  -1.449  1.00  0.00    -0.015 C 
ATOM     28  C   UNL     1      12.424  -4.536  -2.177  1.00  0.00     0.007 C 
ATOM     29  C   UNL     1      13.893  -3.411  -0.478  1.00  0.00     0.007 C 
ENDBRANCH  26  27
ENDBRANCH  25  26
BRANCH  25  30
ATOM     30  C   UNL     1      13.336  -7.836  -2.430  1.00  0.00     0.243 C 
ATOM     31  O   UNL     1      12.327  -8.190  -1.820  1.00  0.00    -0.273 OA
ATOM     32  N   UNL     1      13.507  -8.072  -3.770  1.00  0.00    -0.342 N 
ATOM     33  H   UNL     1      14.303  -7.625  -4.232  1.00  0.00     0.164 HD
BRANCH  32  34
ATOM     34  C   UNL     1      12.521  -8.781  -4.591  1.00  0.00     0.175 C 
BRANCH  34  35
ATOM     35  C   UNL     1      12.600  -8.343  -6.061  1.00  0.00     0.070 C 
BRANCH  35  36
ATOM     36  C   UNL     1      11.263  -8.409  -6.764  1.00  0.00    -0.045 A 
ATOM     37  C   UNL     1      10.104  -8.726  -6.039  1.00  0.00     0.007 A 
ATOM     38  C   UNL     1      11.163  -8.179  -8.142  1.00  0.00     0.007 A 
ATOM     39  C   UNL     1       8.868  -8.803  -6.681  1.00  0.00     0.046 A 
ATOM     40  C   UNL     1       9.926  -8.257  -8.786  1.00  0.00     0.046 A 
ATOM     41  C   UNL     1       8.788  -8.567  -8.048  1.00  0.00     0.115 A 
BRANCH  41  42
ATOM     42  O   UNL     1       7.562  -8.655  -8.638  1.00  0.00    -0.508 OA
ATOM     43  H   UNL     1       7.452  -9.559  -8.978  1.00  0.00     0.293 HD
ENDBRANCH  41  42
ENDBRANCH  35  36
ENDBRANCH  34  35
BRANCH  34  44
ATOM     44  C   UNL     1      12.764 -10.298  -4.427  1.00  0.00     0.243 C 
ATOM     45  O   UNL     1      12.141 -11.022  -3.655  1.00  0.00    -0.273 OA
ATOM     46  N   UNL     1      13.850 -10.761  -5.141  1.00  0.00    -0.341 N 
ATOM     47  H   UNL     1      14.408 -10.099  -5.675  1.00  0.00     0.164 HD
BRANCH  46  48
ATOM     48  C   UNL     1      14.316 -12.148  -5.090  1.00  0.00     0.196 C 
BRANCH  48  49
ATOM     49  C   UNL     1      14.625 -12.687  -6.497  1.00  0.00     0.072 C 
BRANCH  49  50
ATOM     50  C   UNL     1      13.599 -12.259  -7.522  1.00  0.00    -0.045 A 
ATOM     51  C   UNL     1      12.259 -12.646  -7.373  1.00  0.00     0.007 A 
ATOM     52  C   UNL     1      13.969 -11.496  -8.637  1.00  0.00     0.007 A 
ATOM     53  C   UNL     1      11.306 -12.269  -8.319  1.00  0.00     0.046 A 
ATOM     54  C   UNL     1      13.015 -11.119  -9.585  1.00  0.00     0.046 A 
ATOM     55  C   UNL     1      11.690 -11.509  -9.417  1.00  0.00     0.115 A 
BRANCH  55  56
ATOM     56  O   UNL     1      10.729 -11.162 -10.320  1.00  0.00    -0.508 OA
ATOM     57  H   UNL     1      11.114 -11.206 -11.209  1.00  0.00     0.293 HD
ENDBRANCH  55  56
ENDBRANCH  49  50
ENDBRANCH  48  49
BRANCH  48  58
ATOM     58  C   UNL     1      15.580 -12.219  -4.222  1.00  0.00     0.326 C 
ATOM     59  O   UNL     1      15.884 -13.094  -3.428  1.00  0.00    -0.250 OA
BRANCH  58  60
ATOM     60  O   UNL     1      16.425 -11.173  -4.410  1.00  0.00    -0.480 OA
ATOM     61  H   UNL     1      16.699 -11.269  -5.348  1.00  0.00     0.296 HD
ENDBRANCH  58  60
ENDBRANCH  48  58
ENDBRANCH  46  48
ENDBRANCH  34  44
ENDBRANCH  32  34
ENDBRANCH  25  30
ENDBRANCH  23  25
ENDBRANCH   2  23
TORSDOF 28
ENDMDL
MODEL 21
REMARK VINA RESULT:    -4.140     13.752     16.968
REMARK INTER + INTRA:         -16.829
REMARK INTER:                 -10.857
REMARK INTRA:                  -5.972
REMARK UNBOUND:                -6.517
REMARK SMILES CCCCCCC[C@H](N)[C@H](O)C(=O)N[C@H](C)C(=O)N(C)[C@H](CC(C)C)C(=O)N[C@@H](Cc1ccc(O)cc1)C(=O)N[C@@H](Cc1ccc(O)cc1)C(=O)O
REMARK SMILES IDX 18 1 17 2 15 3 16 4 14 5 12 6 13 7 10 9 11 10 8 12 9 13 7 16
REMARK SMILES IDX 6 17 5 18 4 19 3 20 2 21 1 22 19 23 20 24 21 25 22 26 23 27
REMARK SMILES IDX 24 28 25 29 26 30 27 31 28 32 29 34 30 35 31 36 32 37 37 38
REMARK SMILES IDX 33 39 36 40 34 41 35 42 38 44 39 45 40 46 41 48 42 49 43 50
REMARK SMILES IDX 44 51 49 52 45 53 48 54 46 55 47 56 50 58 51 59 52 60
REMARK H PARENT 14 8 11 11 9 14 9 15 28 33 35 43 40 47 47 57 52 61
ROOT
ATOM      1  O   UNL     1      14.079  -8.916   1.377  1.00  0.00    -0.272 OA
ATOM      2  C   UNL     1      13.900 -10.076   1.776  1.00  0.00     0.245 C 
ENDROOT
BRANCH   2   3
ATOM      3  C   UNL     1      14.899 -11.175   1.334  1.00  0.00     0.168 C 
ATOM      4  C   UNL     1      14.168 -12.338   0.673  1.00  0.00     0.041 C 
BRANCH   3   5
ATOM      5  N   UNL     1      16.009 -10.700   0.522  1.00  0.00    -0.342 N 
ATOM      6  C   UNL     1      17.291 -10.610   1.023  1.00  0.00     0.251 C 
ATOM      7  O   UNL     1      17.584 -10.877   2.183  1.00  0.00    -0.272 OA
ATOM      8  H   UNL     1      15.882 -10.417  -0.446  1.00  0.00     0.164 HD
BRANCH   6   9
ATOM      9  C   UNL     1      18.322 -10.223  -0.050  1.00  0.00     0.219 C 
BRANCH   9  10
ATOM     10  O   UNL     1      18.740 -11.340  -0.843  1.00  0.00    -0.382 OA
ATOM     11  H   UNL     1      17.943 -11.913  -0.874  1.00  0.00     0.211 HD
ENDBRANCH   9  10
BRANCH   9  12
ATOM     12  C   UNL     1      17.851  -9.052  -0.953  1.00  0.00     0.089 C 
BRANCH  12  13
ATOM     13  N   UNL     1      17.493  -7.907  -0.084  1.00  0.00    -0.325 NA
ATOM     14  H   UNL     1      17.649  -7.037  -0.595  1.00  0.00     0.119 HD
ATOM     15  H   UNL     1      18.143  -7.874   0.704  1.00  0.00     0.119 HD
ENDBRANCH  12  13
BRANCH  12  16
ATOM     16  C   UNL     1      18.846  -8.598  -2.047  1.00  0.00     0.022 C 
BRANCH  16  17
ATOM     17  C   UNL     1      19.276  -7.126  -2.102  1.00  0.00     0.002 C 
BRANCH  17  18
ATOM     18  C   UNL     1      18.971  -6.413  -3.418  1.00  0.00     0.000 C 
BRANCH  18  19
ATOM     19  C   UNL     1      17.921  -7.122  -4.283  1.00  0.00    -0.000 C 
BRANCH  19  20
ATOM     20  C   UNL     1      17.787  -6.587  -5.711  1.00  0.00    -0.000 C 
BRANCH  20  21
ATOM     21  C   UNL     1      18.215  -7.601  -6.775  1.00  0.00    -0.003 C 
ATOM     22  C   UNL     1      18.073  -7.029  -8.177  1.00  0.00     0.004 C 
ENDBRANCH  20  21
ENDBRANCH  19  20
ENDBRANCH  18  19
ENDBRANCH  17  18
ENDBRANCH  16  17
ENDBRANCH  12  16
ENDBRANCH   9  12
ENDBRANCH   6   9
ENDBRANCH   3   5
ENDBRANCH   2   3
BRANCH   2  23
ATOM     23  N   UNL     1      12.894 -10.347   2.697  1.00  0.00    -0.332 N 
ATOM     24  C   UNL     1      13.080 -11.111   3.923  1.00  0.00     0.147 C 
BRANCH  23  25
ATOM     25  C   UNL     1      11.545  -9.740   2.537  1.00  0.00     0.174 C 
BRANCH  25  26
ATOM     26  C   UNL     1      10.507 -10.306   3.534  1.00  0.00     0.038 C 
BRANCH  26  27
ATOM     27  C   UNL     1       9.222  -9.476   3.753  1.00  0.00    -0.015 C 
ATOM     28  C   UNL     1       9.481  -7.971   3.695  1.00  0.00     0.007 C 
ATOM     29  C   UNL     1       8.082  -9.861   2.814  1.00  0.00     0.007 C 
ENDBRANCH  26  27
ENDBRANCH  25  26
BRANCH  25  30
ATOM     30  C   UNL     1      11.097  -9.822   1.059  1.00  0.00     0.243 C 
ATOM     31  O   UNL     1      10.912 -10.900   0.495  1.00  0.00    -0.273 OA
ATOM     32  N   UNL     1      10.926  -8.619   0.423  1.00  0.00    -0.342 N 
ATOM     33  H   UNL     1      10.961  -7.772   0.995  1.00  0.00     0.164 HD
BRANCH  32  34
ATOM     34  C   UNL     1      10.531  -8.506  -0.983  1.00  0.00     0.175 C 
BRANCH  34  35
ATOM     35  C   UNL     1       9.545  -7.347  -1.195  1.00  0.00     0.070 C 
BRANCH  35  36
ATOM     36  C   UNL     1       8.196  -7.604  -0.562  1.00  0.00    -0.045 A 
ATOM     37  C   UNL     1       7.403  -8.671  -1.011  1.00  0.00     0.007 A 
ATOM     38  C   UNL     1       7.710  -6.775   0.457  1.00  0.00     0.007 A 
ATOM     39  C   UNL     1       6.151  -8.908  -0.443  1.00  0.00     0.046 A 
ATOM     40  C   UNL     1       6.456  -7.010   1.025  1.00  0.00     0.046 A 
ATOM     41  C   UNL     1       5.688  -8.077   0.570  1.00  0.00     0.115 A 
BRANCH  41  42
ATOM     42  O   UNL     1       4.458  -8.341   1.096  1.00  0.00    -0.508 OA
ATOM     43  H   UNL     1       3.785  -8.017   0.475  1.00  0.00     0.293 HD
ENDBRANCH  41  42
ENDBRANCH  35  36
ENDBRANCH  34  35
BRANCH  34  44
ATOM     44  C   UNL     1      11.814  -8.334  -1.828  1.00  0.00     0.243 C 
ATOM     45  O   UNL     1      12.282  -9.199  -2.563  1.00  0.00    -0.273 OA
ATOM     46  N   UNL     1      12.476  -7.149  -1.586  1.00  0.00    -0.341 N 
ATOM     47  H   UNL     1      12.110  -6.514  -0.881  1.00  0.00     0.164 HD
BRANCH  46  48
ATOM     48  C   UNL     1      13.749  -6.793  -2.218  1.00  0.00     0.196 C 
BRANCH  48  49
ATOM     49  C   UNL     1      13.536  -5.853  -3.416  1.00  0.00     0.072 C 
BRANCH  49  50
ATOM     50  C   UNL     1      13.865  -6.510  -4.737  1.00  0.00    -0.045 A 
ATOM     51  C   UNL     1      14.262  -7.854  -4.769  1.00  0.00     0.007 A 
ATOM     52  C   UNL     1      13.801  -5.789  -5.936  1.00  0.00     0.007 A 
ATOM     53  C   UNL     1      14.581  -8.467  -5.981  1.00  0.00     0.046 A 
ATOM     54  C   UNL     1      14.122  -6.402  -7.150  1.00  0.00     0.046 A 
ATOM     55  C   UNL     1      14.509  -7.738  -7.161  1.00  0.00     0.115 A 
BRANCH  55  56
ATOM     56  O   UNL     1      14.831  -8.373  -8.324  1.00  0.00    -0.508 OA
ATOM     57  H   UNL     1      14.648  -9.320  -8.216  1.00  0.00     0.293 HD
ENDBRANCH  55  56
ENDBRANCH  49  50
ENDBRANCH  48  49
BRANCH  48  58
ATOM     58  C   UNL     1      14.647  -6.109  -1.179  1.00  0.00     0.326 C 
ATOM     59  O   UNL     1      14.356  -5.809  -0.033  1.00  0.00    -0.250 OA
BRANCH  58  60
ATOM     60  O   UNL     1      15.897  -5.843  -1.636  1.00  0.00    -0.480 OA
ATOM     61  H   UNL     1      15.749  -5.136  -2.301  1.00  0.00     0.296 HD
ENDBRANCH  58  60
ENDBRANCH  48  58
ENDBRANCH  46  48
ENDBRANCH  34  44
ENDBRANCH  32  34
ENDBRANCH  25  30
ENDBRANCH  23  25
ENDBRANCH   2  23
TORSDOF 28
ENDMDL
MODEL 22
REMARK VINA RESULT:    -4.135     10.798     15.321
REMARK INTER + INTRA:         -16.815
REMARK INTER:                 -11.017
REMARK INTRA:                  -5.798
REMARK UNBOUND:                -6.517
REMARK SMILES CCCCCCC[C@H](N)[C@H](O)C(=O)N[C@H](C)C(=O)N(C)[C@H](CC(C)C)C(=O)N[C@@H](Cc1ccc(O)cc1)C(=O)N[C@@H](Cc1ccc(O)cc1)C(=O)O
REMARK SMILES IDX 18 1 17 2 15 3 16 4 14 5 12 6 13 7 10 9 11 10 8 12 9 13 7 16
REMARK SMILES IDX 6 17 5 18 4 19 3 20 2 21 1 22 19 23 20 24 21 25 22 26 23 27
REMARK SMILES IDX 24 28 25 29 26 30 27 31 28 32 29 34 30 35 31 36 32 37 37 38
REMARK SMILES IDX 33 39 36 40 34 41 35 42 38 44 39 45 40 46 41 48 42 49 43 50
REMARK SMILES IDX 44 51 49 52 45 53 48 54 46 55 47 56 50 58 51 59 52 60
REMARK H PARENT 14 8 11 11 9 14 9 15 28 33 35 43 40 47 47 57 52 61
ROOT
ATOM      1  O   UNL     1      15.712 -11.316   0.645  1.00  0.00    -0.272 OA
ATOM      2  C   UNL     1      15.559 -10.269  -0.000  1.00  0.00     0.245 C 
ENDROOT
BRANCH   2   3
ATOM      3  C   UNL     1      16.100 -10.207  -1.451  1.00  0.00     0.168 C 
ATOM      4  C   UNL     1      15.202 -10.998  -2.397  1.00  0.00     0.041 C 
BRANCH   3   5
ATOM      5  N   UNL     1      16.364  -8.866  -1.948  1.00  0.00    -0.342 N 
ATOM      6  C   UNL     1      17.631  -8.322  -1.936  1.00  0.00     0.251 C 
ATOM      7  O   UNL     1      18.610  -8.898  -1.474  1.00  0.00    -0.272 OA
ATOM      8  H   UNL     1      15.624  -8.278  -2.324  1.00  0.00     0.164 HD
BRANCH   6   9
ATOM      9  C   UNL     1      17.698  -6.956  -2.638  1.00  0.00     0.219 C 
BRANCH   9  10
ATOM     10  O   UNL     1      19.040  -6.559  -2.946  1.00  0.00    -0.382 OA
ATOM     11  H   UNL     1      19.570  -7.361  -2.744  1.00  0.00     0.211 HD
ENDBRANCH   9  10
BRANCH   9  12
ATOM     12  C   UNL     1      16.796  -6.874  -3.898  1.00  0.00     0.089 C 
BRANCH  12  13
ATOM     13  N   UNL     1      16.254  -5.500  -3.996  1.00  0.00    -0.325 NA
ATOM     14  H   UNL     1      15.953  -5.325  -4.956  1.00  0.00     0.119 HD
ATOM     15  H   UNL     1      17.011  -4.833  -3.828  1.00  0.00     0.119 HD
ENDBRANCH  12  13
BRANCH  12  16
ATOM     16  C   UNL     1      17.461  -7.280  -5.235  1.00  0.00     0.022 C 
BRANCH  16  17
ATOM     17  C   UNL     1      16.964  -6.643  -6.540  1.00  0.00     0.002 C 
BRANCH  17  18
ATOM     18  C   UNL     1      16.748  -7.621  -7.693  1.00  0.00     0.000 C 
BRANCH  18  19
ATOM     19  C   UNL     1      16.453  -6.944  -9.038  1.00  0.00    -0.000 C 
BRANCH  19  20
ATOM     20  C   UNL     1      16.310  -7.898 -10.228  1.00  0.00    -0.000 C 
BRANCH  20  21
ATOM     21  C   UNL     1      17.615  -8.086 -11.006  1.00  0.00    -0.003 C 
ATOM     22  C   UNL     1      18.495  -6.849 -10.919  1.00  0.00     0.004 C 
ENDBRANCH  20  21
ENDBRANCH  19  20
ENDBRANCH  18  19
ENDBRANCH  17  18
ENDBRANCH  16  17
ENDBRANCH  12  16
ENDBRANCH   9  12
ENDBRANCH   6   9
ENDBRANCH   3   5
ENDBRANCH   2   3
BRANCH   2  23
ATOM     23  N   UNL     1      14.811  -9.225   0.533  1.00  0.00    -0.332 N 
ATOM     24  C   UNL     1      13.357  -9.169   0.535  1.00  0.00     0.147 C 
BRANCH  23  25
ATOM     25  C   UNL     1      15.482  -8.122   1.274  1.00  0.00     0.174 C 
BRANCH  25  26
ATOM     26  C   UNL     1      15.687  -8.442   2.774  1.00  0.00     0.038 C 
BRANCH  26  27
ATOM     27  C   UNL     1      17.137  -8.406   3.306  1.00  0.00    -0.015 C 
ATOM     28  C   UNL     1      18.167  -8.681   2.211  1.00  0.00     0.007 C 
ATOM     29  C   UNL     1      17.478  -7.119   4.053  1.00  0.00     0.007 C 
ENDBRANCH  26  27
ENDBRANCH  25  26
BRANCH  25  30
ATOM     30  C   UNL     1      14.748  -6.786   1.019  1.00  0.00     0.243 C 
ATOM     31  O   UNL     1      14.132  -6.201   1.909  1.00  0.00    -0.273 OA
ATOM     32  N   UNL     1      14.824  -6.303  -0.262  1.00  0.00    -0.342 N 
ATOM     33  H   UNL     1      15.468  -6.769  -0.907  1.00  0.00     0.164 HD
BRANCH  32  34
ATOM     34  C   UNL     1      14.168  -5.065  -0.693  1.00  0.00     0.175 C 
BRANCH  34  35
ATOM     35  C   UNL     1      15.196  -3.975  -1.030  1.00  0.00     0.070 C 
BRANCH  35  36
ATOM     36  C   UNL     1      14.945  -2.684  -0.286  1.00  0.00    -0.045 A 
ATOM     37  C   UNL     1      15.988  -1.762  -0.108  1.00  0.00     0.007 A 
ATOM     38  C   UNL     1      13.684  -2.399   0.255  1.00  0.00     0.007 A 
ATOM     39  C   UNL     1      15.769  -0.573   0.590  1.00  0.00     0.046 A 
ATOM     40  C   UNL     1      13.465  -1.210   0.954  1.00  0.00     0.046 A 
ATOM     41  C   UNL     1      14.510  -0.307   1.114  1.00  0.00     0.115 A 
BRANCH  41  42
ATOM     42  O   UNL     1      14.339   0.864   1.792  1.00  0.00    -0.508 OA
ATOM     43  H   UNL     1      13.388   1.060   1.827  1.00  0.00     0.293 HD
ENDBRANCH  41  42
ENDBRANCH  35  36
ENDBRANCH  34  35
BRANCH  34  44
ATOM     44  C   UNL     1      13.263  -5.399  -1.901  1.00  0.00     0.243 C 
ATOM     45  O   UNL     1      12.321  -4.706  -2.274  1.00  0.00    -0.273 OA
ATOM     46  N   UNL     1      13.526  -6.632  -2.459  1.00  0.00    -0.341 N 
ATOM     47  H   UNL     1      14.241  -7.222  -2.041  1.00  0.00     0.164 HD
BRANCH  46  48
ATOM     48  C   UNL     1      12.755  -7.194  -3.571  1.00  0.00     0.196 C 
BRANCH  48  49
ATOM     49  C   UNL     1      13.646  -8.029  -4.505  1.00  0.00     0.072 C 
BRANCH  49  50
ATOM     50  C   UNL     1      13.389  -7.740  -5.966  1.00  0.00    -0.045 A 
ATOM     51  C   UNL     1      13.246  -8.799  -6.874  1.00  0.00     0.007 A 
ATOM     52  C   UNL     1      13.311  -6.423  -6.438  1.00  0.00     0.007 A 
ATOM     53  C   UNL     1      13.022  -8.545  -8.227  1.00  0.00     0.046 A 
ATOM     54  C   UNL     1      13.088  -6.168  -7.793  1.00  0.00     0.046 A 
ATOM     55  C   UNL     1      12.944  -7.232  -8.676  1.00  0.00     0.115 A 
BRANCH  55  56
ATOM     56  O   UNL     1      12.726  -7.026 -10.006  1.00  0.00    -0.508 OA
ATOM     57  H   UNL     1      11.898  -6.530 -10.107  1.00  0.00     0.293 HD
ENDBRANCH  55  56
ENDBRANCH  49  50
ENDBRANCH  48  49
BRANCH  48  58
ATOM     58  C   UNL     1      11.633  -8.076  -3.004  1.00  0.00     0.326 C 
ATOM     59  O   UNL     1      10.513  -7.724  -2.672  1.00  0.00    -0.250 OA
BRANCH  58  60
ATOM     60  O   UNL     1      11.977  -9.384  -2.895  1.00  0.00    -0.480 OA
ATOM     61  H   UNL     1      12.280  -9.614  -3.800  1.00  0.00     0.296 HD
ENDBRANCH  58  60
ENDBRANCH  48  58
ENDBRANCH  46  48
ENDBRANCH  34  44
ENDBRANCH  32  34
ENDBRANCH  25  30
ENDBRANCH  23  25
ENDBRANCH   2  23
TORSDOF 28
ENDMDL
MODEL 23
REMARK VINA RESULT:    -4.134     12.953     16.295
REMARK INTER + INTRA:         -16.814
REMARK INTER:                 -11.517
REMARK INTRA:                  -5.296
REMARK UNBOUND:                -6.517
REMARK SMILES CCCCCCC[C@H](N)[C@H](O)C(=O)N[C@H](C)C(=O)N(C)[C@H](CC(C)C)C(=O)N[C@@H](Cc1ccc(O)cc1)C(=O)N[C@@H](Cc1ccc(O)cc1)C(=O)O
REMARK SMILES IDX 18 1 17 2 15 3 16 4 14 5 12 6 13 7 10 9 11 10 8 12 9 13 7 16
REMARK SMILES IDX 6 17 5 18 4 19 3 20 2 21 1 22 19 23 20 24 21 25 22 26 23 27
REMARK SMILES IDX 24 28 25 29 26 30 27 31 28 32 29 34 30 35 31 36 32 37 37 38
REMARK SMILES IDX 33 39 36 40 34 41 35 42 38 44 39 45 40 46 41 48 42 49 43 50
REMARK SMILES IDX 44 51 49 52 45 53 48 54 46 55 47 56 50 58 51 59 52 60
REMARK H PARENT 14 8 11 11 9 14 9 15 28 33 35 43 40 47 47 57 52 61
ROOT
ATOM      1  O   UNL     1      16.125 -10.904  -0.714  1.00  0.00    -0.272 OA
ATOM      2  C   UNL     1      16.711  -9.865  -0.375  1.00  0.00     0.245 C 
ENDROOT
BRANCH   2   3
ATOM      3  C   UNL     1      18.158  -9.633  -0.878  1.00  0.00     0.168 C 
ATOM      4  C   UNL     1      18.800 -10.948  -1.305  1.00  0.00     0.041 C 
BRANCH   3   5
ATOM      5  N   UNL     1      18.292  -8.607  -1.900  1.00  0.00    -0.342 N 
ATOM      6  C   UNL     1      19.014  -7.452  -1.683  1.00  0.00     0.251 C 
ATOM      7  O   UNL     1      19.555  -7.184  -0.615  1.00  0.00    -0.272 OA
ATOM      8  H   UNL     1      17.857  -8.702  -2.815  1.00  0.00     0.164 HD
BRANCH   6   9
ATOM      9  C   UNL     1      19.138  -6.583  -2.944  1.00  0.00     0.219 C 
BRANCH   9  10
ATOM     10  O   UNL     1      20.486  -6.492  -3.422  1.00  0.00    -0.382 OA
ATOM     11  H   UNL     1      20.897  -5.826  -2.828  1.00  0.00     0.211 HD
ENDBRANCH   9  10
BRANCH   9  12
ATOM     12  C   UNL     1      18.179  -7.019  -4.082  1.00  0.00     0.089 C 
BRANCH  12  13
ATOM     13  N   UNL     1      16.793  -6.693  -3.675  1.00  0.00    -0.325 NA
ATOM     14  H   UNL     1      16.317  -6.224  -4.448  1.00  0.00     0.119 HD
ATOM     15  H   UNL     1      16.823  -6.003  -2.921  1.00  0.00     0.119 HD
ENDBRANCH  12  13
BRANCH  12  16
ATOM     16  C   UNL     1      18.474  -6.429  -5.482  1.00  0.00     0.022 C 
BRANCH  16  17
ATOM     17  C   UNL     1      19.028  -7.349  -6.578  1.00  0.00     0.002 C 
BRANCH  17  18
ATOM     18  C   UNL     1      18.888  -6.813  -8.001  1.00  0.00     0.000 C 
BRANCH  18  19
ATOM     19  C   UNL     1      19.187  -7.850  -9.092  1.00  0.00    -0.000 C 
BRANCH  19  20
ATOM     20  C   UNL     1      19.319  -9.294  -8.598  1.00  0.00    -0.000 C 
BRANCH  20  21
ATOM     21  C   UNL     1      18.834 -10.324  -9.621  1.00  0.00    -0.003 C 
ATOM     22  C   UNL     1      19.947 -11.285 -10.010  1.00  0.00     0.004 C 
ENDBRANCH  20  21
ENDBRANCH  19  20
ENDBRANCH  18  19
ENDBRANCH  17  18
ENDBRANCH  16  17
ENDBRANCH  12  16
ENDBRANCH   9  12
ENDBRANCH   6   9
ENDBRANCH   3   5
ENDBRANCH   2   3
BRANCH   2  23
ATOM     23  N   UNL     1      16.031  -8.884   0.338  1.00  0.00    -0.332 N 
ATOM     24  C   UNL     1      16.013  -8.780   1.789  1.00  0.00     0.147 C 
BRANCH  23  25
ATOM     25  C   UNL     1      15.359  -7.765  -0.379  1.00  0.00     0.174 C 
BRANCH  25  26
ATOM     26  C   UNL     1      15.280  -6.471   0.465  1.00  0.00     0.038 C 
BRANCH  26  27
ATOM     27  C   UNL     1      15.324  -5.131  -0.303  1.00  0.00    -0.015 C 
ATOM     28  C   UNL     1      14.600  -4.008   0.440  1.00  0.00     0.007 C 
ATOM     29  C   UNL     1      16.736  -4.697  -0.687  1.00  0.00     0.007 C 
ENDBRANCH  26  27
ENDBRANCH  25  26
BRANCH  25  30
ATOM     30  C   UNL     1      13.993  -8.231  -0.932  1.00  0.00     0.243 C 
ATOM     31  O   UNL     1      13.245  -8.961  -0.284  1.00  0.00    -0.273 OA
ATOM     32  N   UNL     1      13.677  -7.782  -2.188  1.00  0.00    -0.342 N 
ATOM     33  H   UNL     1      14.282  -7.068  -2.602  1.00  0.00     0.164 HD
BRANCH  32  34
ATOM     34  C   UNL     1      12.438  -8.144  -2.881  1.00  0.00     0.175 C 
BRANCH  34  35
ATOM     35  C   UNL     1      11.338  -7.098  -2.643  1.00  0.00     0.070 C 
BRANCH  35  36
ATOM     36  C   UNL     1      10.051  -7.708  -2.134  1.00  0.00    -0.045 A 
ATOM     37  C   UNL     1       9.478  -8.799  -2.805  1.00  0.00     0.007 A 
ATOM     38  C   UNL     1       9.404  -7.183  -1.008  1.00  0.00     0.007 A 
ATOM     39  C   UNL     1       8.284  -9.359  -2.350  1.00  0.00     0.046 A 
ATOM     40  C   UNL     1       8.207  -7.743  -0.554  1.00  0.00     0.046 A 
ATOM     41  C   UNL     1       7.659  -8.828  -1.229  1.00  0.00     0.115 A 
BRANCH  41  42
ATOM     42  O   UNL     1       6.492  -9.402  -0.820  1.00  0.00    -0.508 OA
ATOM     43  H   UNL     1       6.683  -9.969  -0.055  1.00  0.00     0.293 HD
ENDBRANCH  41  42
ENDBRANCH  35  36
ENDBRANCH  34  35
BRANCH  34  44
ATOM     44  C   UNL     1      12.760  -8.312  -4.383  1.00  0.00     0.243 C 
ATOM     45  O   UNL     1      11.925  -8.558  -5.249  1.00  0.00    -0.273 OA
ATOM     46  N   UNL     1      14.111  -8.289  -4.660  1.00  0.00    -0.341 N 
ATOM     47  H   UNL     1      14.771  -8.199  -3.892  1.00  0.00     0.164 HD
BRANCH  46  48
ATOM     48  C   UNL     1      14.661  -8.494  -6.002  1.00  0.00     0.196 C 
BRANCH  48  49
ATOM     49  C   UNL     1      15.075  -7.161  -6.648  1.00  0.00     0.072 C 
BRANCH  49  50
ATOM     50  C   UNL     1      14.616  -7.043  -8.083  1.00  0.00    -0.045 A 
ATOM     51  C   UNL     1      13.266  -6.789  -8.367  1.00  0.00     0.007 A 
ATOM     52  C   UNL     1      15.516  -7.205  -9.144  1.00  0.00     0.007 A 
ATOM     53  C   UNL     1      12.828  -6.691  -9.687  1.00  0.00     0.046 A 
ATOM     54  C   UNL     1      15.077  -7.108 -10.467  1.00  0.00     0.046 A 
ATOM     55  C   UNL     1      13.736  -6.850 -10.727  1.00  0.00     0.115 A 
BRANCH  55  56
ATOM     56  O   UNL     1      13.267  -6.749 -12.003  1.00  0.00    -0.508 OA
ATOM     57  H   UNL     1      12.914  -5.854 -12.129  1.00  0.00     0.293 HD
ENDBRANCH  55  56
ENDBRANCH  49  50
ENDBRANCH  48  49
BRANCH  48  58
ATOM     58  C   UNL     1      15.882  -9.420  -5.904  1.00  0.00     0.326 C 
ATOM     59  O   UNL     1      16.542  -9.872  -6.825  1.00  0.00    -0.250 OA
BRANCH  58  60
ATOM     60  O   UNL     1      16.229  -9.725  -4.628  1.00  0.00    -0.480 OA
ATOM     61  H   UNL     1      17.199  -9.870  -4.686  1.00  0.00     0.296 HD
ENDBRANCH  58  60
ENDBRANCH  48  58
ENDBRANCH  46  48
ENDBRANCH  34  44
ENDBRANCH  32  34
ENDBRANCH  25  30
ENDBRANCH  23  25
ENDBRANCH   2  23
TORSDOF 28
ENDMDL
MODEL 24
REMARK VINA RESULT:    -4.124      5.303     11.245
REMARK INTER + INTRA:         -16.789
REMARK INTER:                 -14.120
REMARK INTRA:                  -2.669
REMARK UNBOUND:                -6.517
REMARK SMILES CCCCCCC[C@H](N)[C@H](O)C(=O)N[C@H](C)C(=O)N(C)[C@H](CC(C)C)C(=O)N[C@@H](Cc1ccc(O)cc1)C(=O)N[C@@H](Cc1ccc(O)cc1)C(=O)O
REMARK SMILES IDX 18 1 17 2 15 3 16 4 14 5 12 6 13 7 10 9 11 10 8 12 9 13 7 16
REMARK SMILES IDX 6 17 5 18 4 19 3 20 2 21 1 22 19 23 20 24 21 25 22 26 23 27
REMARK SMILES IDX 24 28 25 29 26 30 27 31 28 32 29 34 30 35 31 36 32 37 37 38
REMARK SMILES IDX 33 39 36 40 34 41 35 42 38 44 39 45 40 46 41 48 42 49 43 50
REMARK SMILES IDX 44 51 49 52 45 53 48 54 46 55 47 56 50 58 51 59 52 60
REMARK H PARENT 14 8 11 11 9 14 9 15 28 33 35 43 40 47 47 57 52 61
ROOT
ATOM      1  O   UNL     1       9.755  10.141   2.813  1.00  0.00    -0.272 OA
ATOM      2  C   UNL     1       9.284   9.171   2.200  1.00  0.00     0.245 C 
ENDROOT
BRANCH   2   3
ATOM      3  C   UNL     1       8.023   8.476   2.772  1.00  0.00     0.168 C 
ATOM      4  C   UNL     1       8.397   7.516   3.896  1.00  0.00     0.041 C 
BRANCH   3   5
ATOM      5  N   UNL     1       6.952   9.378   3.163  1.00  0.00    -0.342 N 
ATOM      6  C   UNL     1       5.638   9.141   2.819  1.00  0.00     0.251 C 
ATOM      7  O   UNL     1       5.280   8.189   2.132  1.00  0.00    -0.272 OA
ATOM      8  H   UNL     1       7.131  10.220   3.704  1.00  0.00     0.164 HD
BRANCH   6   9
ATOM      9  C   UNL     1       4.665  10.145   3.458  1.00  0.00     0.219 C 
BRANCH   9  10
ATOM     10  O   UNL     1       3.520  10.404   2.637  1.00  0.00    -0.382 OA
ATOM     11  H   UNL     1       3.773  10.032   1.763  1.00  0.00     0.211 HD
ENDBRANCH   9  10
BRANCH   9  12
ATOM     12  C   UNL     1       4.235   9.746   4.893  1.00  0.00     0.089 C 
BRANCH  12  13
ATOM     13  N   UNL     1       2.833   9.271   4.846  1.00  0.00    -0.325 NA
ATOM     14  H   UNL     1       2.819   8.255   4.952  1.00  0.00     0.119 HD
ATOM     15  H   UNL     1       2.455   9.447   3.912  1.00  0.00     0.119 HD
ENDBRANCH  12  13
BRANCH  12  16
ATOM     16  C   UNL     1       5.127   8.699   5.603  1.00  0.00     0.022 C 
BRANCH  16  17
ATOM     17  C   UNL     1       5.650   8.998   7.015  1.00  0.00     0.002 C 
BRANCH  17  18
ATOM     18  C   UNL     1       6.001   7.766   7.846  1.00  0.00     0.000 C 
BRANCH  18  19
ATOM     19  C   UNL     1       6.004   6.454   7.049  1.00  0.00    -0.000 C 
BRANCH  19  20
ATOM     20  C   UNL     1       5.732   5.192   7.872  1.00  0.00    -0.000 C 
BRANCH  20  21
ATOM     21  C   UNL     1       4.706   4.261   7.221  1.00  0.00    -0.003 C 
ATOM     22  C   UNL     1       3.857   3.553   8.266  1.00  0.00     0.004 C 
ENDBRANCH  20  21
ENDBRANCH  19  20
ENDBRANCH  18  19
ENDBRANCH  17  18
ENDBRANCH  16  17
ENDBRANCH  12  16
ENDBRANCH   9  12
ENDBRANCH   6   9
ENDBRANCH   3   5
ENDBRANCH   2   3
BRANCH   2  23
ATOM     23  N   UNL     1       9.811   8.805   0.967  1.00  0.00    -0.332 N 
ATOM     24  C   UNL     1       9.186   9.091  -0.316  1.00  0.00     0.147 C 
BRANCH  23  25
ATOM     25  C   UNL     1      11.162   8.185   0.881  1.00  0.00     0.174 C 
BRANCH  25  26
ATOM     26  C   UNL     1      11.490   7.287   2.097  1.00  0.00     0.038 C 
BRANCH  26  27
ATOM     27  C   UNL     1      11.530   5.762   1.852  1.00  0.00    -0.015 C 
ATOM     28  C   UNL     1      10.163   5.197   1.467  1.00  0.00     0.007 C 
ATOM     29  C   UNL     1      12.592   5.337   0.841  1.00  0.00     0.007 C 
ENDBRANCH  26  27
ENDBRANCH  25  26
BRANCH  25  30
ATOM     30  C   UNL     1      12.228   9.268   0.602  1.00  0.00     0.243 C 
ATOM     31  O   UNL     1      11.948  10.466   0.580  1.00  0.00    -0.273 OA
ATOM     32  N   UNL     1      13.499   8.806   0.376  1.00  0.00    -0.342 N 
ATOM     33  H   UNL     1      13.680   7.814   0.550  1.00  0.00     0.164 HD
BRANCH  32  34
ATOM     34  C   UNL     1      14.630   9.686   0.068  1.00  0.00     0.175 C 
BRANCH  34  35
ATOM     35  C   UNL     1      15.565   9.836   1.277  1.00  0.00     0.070 C 
BRANCH  35  36
ATOM     36  C   UNL     1      15.350   8.764   2.321  1.00  0.00    -0.045 A 
ATOM     37  C   UNL     1      14.642   9.059   3.496  1.00  0.00     0.007 A 
ATOM     38  C   UNL     1      15.868   7.474   2.144  1.00  0.00     0.007 A 
ATOM     39  C   UNL     1      14.450   8.080   4.471  1.00  0.00     0.046 A 
ATOM     40  C   UNL     1      15.678   6.493   3.121  1.00  0.00     0.046 A 
ATOM     41  C   UNL     1      14.968   6.806   4.275  1.00  0.00     0.115 A 
BRANCH  41  42
ATOM     42  O   UNL     1      14.761   5.878   5.253  1.00  0.00    -0.508 OA
ATOM     43  H   UNL     1      13.809   5.850   5.450  1.00  0.00     0.293 HD
ENDBRANCH  41  42
ENDBRANCH  35  36
ENDBRANCH  34  35
BRANCH  34  44
ATOM     44  C   UNL     1      15.365   9.108  -1.162  1.00  0.00     0.243 C 
ATOM     45  O   UNL     1      16.315   9.650  -1.720  1.00  0.00    -0.273 OA
ATOM     46  N   UNL     1      14.772   7.974  -1.674  1.00  0.00    -0.341 N 
ATOM     47  H   UNL     1      13.916   7.628  -1.246  1.00  0.00     0.164 HD
BRANCH  46  48
ATOM     48  C   UNL     1      15.249   7.287  -2.876  1.00  0.00     0.196 C 
BRANCH  48  49
ATOM     49  C   UNL     1      15.464   8.273  -4.036  1.00  0.00     0.072 C 
BRANCH  49  50
ATOM     50  C   UNL     1      14.969   7.733  -5.359  1.00  0.00    -0.045 A 
ATOM     51  C   UNL     1      15.158   6.380  -5.676  1.00  0.00     0.007 A 
ATOM     52  C   UNL     1      14.340   8.570  -6.289  1.00  0.00     0.007 A 
ATOM     53  C   UNL     1      14.717   5.874  -6.898  1.00  0.00     0.046 A 
ATOM     54  C   UNL     1      13.900   8.063  -7.514  1.00  0.00     0.046 A 
ATOM     55  C   UNL     1      14.092   6.718  -7.808  1.00  0.00     0.115 A 
BRANCH  55  56
ATOM     56  O   UNL     1      13.678   6.184  -8.992  1.00  0.00    -0.508 OA
ATOM     57  H   UNL     1      13.271   6.889  -9.520  1.00  0.00     0.293 HD
ENDBRANCH  55  56
ENDBRANCH  49  50
ENDBRANCH  48  49
BRANCH  48  58
ATOM     58  C   UNL     1      16.570   6.575  -2.553  1.00  0.00     0.326 C 
ATOM     59  O   UNL     1      16.714   5.520  -1.957  1.00  0.00    -0.250 OA
BRANCH  58  60
ATOM     60  O   UNL     1      17.664   7.228  -3.018  1.00  0.00    -0.480 OA
ATOM     61  H   UNL     1      17.291   8.052  -3.399  1.00  0.00     0.296 HD
ENDBRANCH  58  60
ENDBRANCH  48  58
ENDBRANCH  46  48
ENDBRANCH  34  44
ENDBRANCH  32  34
ENDBRANCH  25  30
ENDBRANCH  23  25
ENDBRANCH   2  23
TORSDOF 28
ENDMDL
MODEL 25
REMARK VINA RESULT:    -4.113     17.430     21.819
REMARK INTER + INTRA:         -16.761
REMARK INTER:                 -14.201
REMARK INTRA:                  -2.560
REMARK UNBOUND:                -6.517
REMARK SMILES CCCCCCC[C@H](N)[C@H](O)C(=O)N[C@H](C)C(=O)N(C)[C@H](CC(C)C)C(=O)N[C@@H](Cc1ccc(O)cc1)C(=O)N[C@@H](Cc1ccc(O)cc1)C(=O)O
REMARK SMILES IDX 18 1 17 2 15 3 16 4 14 5 12 6 13 7 10 9 11 10 8 12 9 13 7 16
REMARK SMILES IDX 6 17 5 18 4 19 3 20 2 21 1 22 19 23 20 24 21 25 22 26 23 27
REMARK SMILES IDX 24 28 25 29 26 30 27 31 28 32 29 34 30 35 31 36 32 37 37 38
REMARK SMILES IDX 33 39 36 40 34 41 35 42 38 44 39 45 40 46 41 48 42 49 43 50
REMARK SMILES IDX 44 51 49 52 45 53 48 54 46 55 47 56 50 58 51 59 52 60
REMARK H PARENT 14 8 11 11 9 14 9 15 28 33 35 43 40 47 47 57 52 61
ROOT
ATOM      1  O   UNL     1       3.387  -5.985   6.450  1.00  0.00    -0.272 OA
ATOM      2  C   UNL     1       3.463  -6.743   7.428  1.00  0.00     0.245 C 
ENDROOT
BRANCH   2   3
ATOM      3  C   UNL     1       2.389  -6.631   8.538  1.00  0.00     0.168 C 
ATOM      4  C   UNL     1       3.036  -6.615   9.919  1.00  0.00     0.041 C 
BRANCH   3   5
ATOM      5  N   UNL     1       1.447  -5.536   8.369  1.00  0.00    -0.342 N 
ATOM      6  C   UNL     1       1.761  -4.243   8.729  1.00  0.00     0.251 C 
ATOM      7  O   UNL     1       2.825  -3.926   9.251  1.00  0.00    -0.272 OA
ATOM      8  H   UNL     1       0.519  -5.682   7.978  1.00  0.00     0.164 HD
BRANCH   6   9
ATOM      9  C   UNL     1       0.674  -3.233   8.329  1.00  0.00     0.219 C 
BRANCH   9  10
ATOM     10  O   UNL     1       0.650  -2.080   9.180  1.00  0.00    -0.382 OA
ATOM     11  H   UNL     1      -0.266  -2.072   9.533  1.00  0.00     0.211 HD
ENDBRANCH   9  10
BRANCH   9  12
ATOM     12  C   UNL     1       0.750  -2.815   6.838  1.00  0.00     0.089 C 
BRANCH  12  13
ATOM     13  N   UNL     1       2.115  -3.103   6.341  1.00  0.00    -0.325 NA
ATOM     14  H   UNL     1       2.766  -3.103   7.128  1.00  0.00     0.119 HD
ATOM     15  H   UNL     1       2.419  -2.330   5.744  1.00  0.00     0.119 HD
ENDBRANCH  12  13
BRANCH  12  16
ATOM     16  C   UNL     1      -0.303  -3.454   5.900  1.00  0.00     0.022 C 
BRANCH  16  17
ATOM     17  C   UNL     1      -0.696  -2.723   4.609  1.00  0.00     0.002 C 
BRANCH  17  18
ATOM     18  C   UNL     1      -1.351  -3.600   3.545  1.00  0.00     0.000 C 
BRANCH  18  19
ATOM     19  C   UNL     1      -1.110  -3.122   2.107  1.00  0.00    -0.000 C 
BRANCH  19  20
ATOM     20  C   UNL     1      -2.336  -3.175   1.190  1.00  0.00    -0.000 C 
BRANCH  20  21
ATOM     21  C   UNL     1      -2.166  -4.143   0.017  1.00  0.00    -0.003 C 
ATOM     22  C   UNL     1      -3.365  -4.098  -0.918  1.00  0.00     0.004 C 
ENDBRANCH  20  21
ENDBRANCH  19  20
ENDBRANCH  18  19
ENDBRANCH  17  18
ENDBRANCH  16  17
ENDBRANCH  12  16
ENDBRANCH   9  12
ENDBRANCH   6   9
ENDBRANCH   3   5
ENDBRANCH   2   3
BRANCH   2  23
ATOM     23  N   UNL     1       4.424  -7.749   7.455  1.00  0.00    -0.332 N 
ATOM     24  C   UNL     1       5.780  -7.582   7.956  1.00  0.00     0.147 C 
BRANCH  23  25
ATOM     25  C   UNL     1       4.063  -9.142   7.073  1.00  0.00     0.174 C 
BRANCH  25  26
ATOM     26  C   UNL     1       4.496 -10.186   8.129  1.00  0.00     0.038 C 
BRANCH  26  27
ATOM     27  C   UNL     1       3.401 -10.716   9.080  1.00  0.00    -0.015 C 
ATOM     28  C   UNL     1       3.608 -10.257  10.523  1.00  0.00     0.007 C 
ATOM     29  C   UNL     1       1.983 -10.394   8.613  1.00  0.00     0.007 C 
ENDBRANCH  26  27
ENDBRANCH  25  26
BRANCH  25  30
ATOM     30  C   UNL     1       4.572  -9.451   5.647  1.00  0.00     0.243 C 
ATOM     31  O   UNL     1       5.305 -10.412   5.412  1.00  0.00    -0.273 OA
ATOM     32  N   UNL     1       4.160  -8.584   4.668  1.00  0.00    -0.342 N 
ATOM     33  H   UNL     1       3.442  -7.898   4.916  1.00  0.00     0.164 HD
BRANCH  32  34
ATOM     34  C   UNL     1       4.566  -8.706   3.266  1.00  0.00     0.175 C 
BRANCH  34  35
ATOM     35  C   UNL     1       5.989  -9.270   3.143  1.00  0.00     0.070 C 
BRANCH  35  36
ATOM     36  C   UNL     1       6.763  -8.662   1.995  1.00  0.00    -0.045 A 
ATOM     37  C   UNL     1       7.272  -9.484   0.978  1.00  0.00     0.007 A 
ATOM     38  C   UNL     1       7.002  -7.283   1.940  1.00  0.00     0.007 A 
ATOM     39  C   UNL     1       7.998  -8.933  -0.079  1.00  0.00     0.046 A 
ATOM     40  C   UNL     1       7.730  -6.731   0.883  1.00  0.00     0.046 A 
ATOM     41  C   UNL     1       8.221  -7.562  -0.118  1.00  0.00     0.115 A 
BRANCH  41  42
ATOM     42  O   UNL     1       8.938  -7.064  -1.165  1.00  0.00    -0.508 OA
ATOM     43  H   UNL     1       9.800  -7.512  -1.184  1.00  0.00     0.293 HD
ENDBRANCH  41  42
ENDBRANCH  35  36
ENDBRANCH  34  35
BRANCH  34  44
ATOM     44  C   UNL     1       3.528  -9.594   2.543  1.00  0.00     0.243 C 
ATOM     45  O   UNL     1       3.252 -10.745   2.870  1.00  0.00    -0.273 OA
ATOM     46  N   UNL     1       3.020  -9.022   1.396  1.00  0.00    -0.341 N 
ATOM     47  H   UNL     1       3.368  -8.112   1.102  1.00  0.00     0.164 HD
BRANCH  46  48
ATOM     48  C   UNL     1       2.073  -9.700   0.508  1.00  0.00     0.196 C 
BRANCH  48  49
ATOM     49  C   UNL     1       1.102  -8.701  -0.144  1.00  0.00     0.072 C 
BRANCH  49  50
ATOM     50  C   UNL     1      -0.341  -8.974   0.217  1.00  0.00    -0.045 A 
ATOM     51  C   UNL     1      -1.253  -7.912   0.301  1.00  0.00     0.007 A 
ATOM     52  C   UNL     1      -0.782 -10.275   0.490  1.00  0.00     0.007 A 
ATOM     53  C   UNL     1      -2.584  -8.149   0.645  1.00  0.00     0.046 A 
ATOM     54  C   UNL     1      -2.115 -10.512   0.836  1.00  0.00     0.046 A 
ATOM     55  C   UNL     1      -3.005  -9.447   0.910  1.00  0.00     0.115 A 
BRANCH  55  56
ATOM     56  O   UNL     1      -4.313  -9.636   1.245  1.00  0.00    -0.508 OA
ATOM     57  H   UNL     1      -4.750  -8.770   1.273  1.00  0.00     0.293 HD
ENDBRANCH  55  56
ENDBRANCH  49  50
ENDBRANCH  48  49
BRANCH  48  58
ATOM     58  C   UNL     1       2.857 -10.443  -0.583  1.00  0.00     0.326 C 
ATOM     59  O   UNL     1       2.800 -11.631  -0.855  1.00  0.00    -0.250 OA
BRANCH  58  60
ATOM     60  O   UNL     1       3.678  -9.637  -1.303  1.00  0.00    -0.480 OA
ATOM     61  H   UNL     1       4.417 -10.234  -1.553  1.00  0.00     0.296 HD
ENDBRANCH  58  60
ENDBRANCH  48  58
ENDBRANCH  46  48
ENDBRANCH  34  44
ENDBRANCH  32  34
ENDBRANCH  25  30
ENDBRANCH  23  25
ENDBRANCH   2  23
TORSDOF 28
ENDMDL
MODEL 26
REMARK VINA RESULT:    -4.104     14.630     18.819
REMARK INTER + INTRA:         -16.737
REMARK INTER:                  -9.553
REMARK INTRA:                  -7.185
REMARK UNBOUND:                -6.517
REMARK SMILES CCCCCCC[C@H](N)[C@H](O)C(=O)N[C@H](C)C(=O)N(C)[C@H](CC(C)C)C(=O)N[C@@H](Cc1ccc(O)cc1)C(=O)N[C@@H](Cc1ccc(O)cc1)C(=O)O
REMARK SMILES IDX 18 1 17 2 15 3 16 4 14 5 12 6 13 7 10 9 11 10 8 12 9 13 7 16
REMARK SMILES IDX 6 17 5 18 4 19 3 20 2 21 1 22 19 23 20 24 21 25 22 26 23 27
REMARK SMILES IDX 24 28 25 29 26 30 27 31 28 32 29 34 30 35 31 36 32 37 37 38
REMARK SMILES IDX 33 39 36 40 34 41 35 42 38 44 39 45 40 46 41 48 42 49 43 50
REMARK SMILES IDX 44 51 49 52 45 53 48 54 46 55 47 56 50 58 51 59 52 60
REMARK H PARENT 14 8 11 11 9 14 9 15 28 33 35 43 40 47 47 57 52 61
ROOT
ATOM      1  O   UNL     1      10.859 -10.597 -12.340  1.00  0.00    -0.272 OA
ATOM      2  C   UNL     1      10.836  -9.364 -12.211  1.00  0.00     0.245 C 
ENDROOT
BRANCH   2   3
ATOM      3  C   UNL     1      12.037  -8.541 -12.743  1.00  0.00     0.168 C 
ATOM      4  C   UNL     1      11.590  -7.577 -13.836  1.00  0.00     0.041 C 
BRANCH   3   5
ATOM      5  N   UNL     1      12.821  -7.872 -11.717  1.00  0.00    -0.342 N 
ATOM      6  C   UNL     1      14.167  -8.121 -11.551  1.00  0.00     0.251 C 
ATOM      7  O   UNL     1      14.790  -8.942 -12.216  1.00  0.00    -0.272 OA
ATOM      8  H   UNL     1      12.406  -7.194 -11.081  1.00  0.00     0.164 HD
BRANCH   6   9
ATOM      9  C   UNL     1      14.818  -7.199 -10.508  1.00  0.00     0.219 C 
BRANCH   9  10
ATOM     10  O   UNL     1      13.902  -6.787  -9.486  1.00  0.00    -0.382 OA
ATOM     11  H   UNL     1      13.683  -5.861  -9.733  1.00  0.00     0.211 HD
ENDBRANCH   9  10
BRANCH   9  12
ATOM     12  C   UNL     1      16.105  -7.800  -9.883  1.00  0.00     0.089 C 
BRANCH  12  13
ATOM     13  N   UNL     1      17.232  -7.557 -10.812  1.00  0.00    -0.325 NA
ATOM     14  H   UNL     1      17.829  -8.386 -10.839  1.00  0.00     0.119 HD
ATOM     15  H   UNL     1      17.823  -6.815 -10.430  1.00  0.00     0.119 HD
ENDBRANCH  12  13
BRANCH  12  16
ATOM     16  C   UNL     1      16.468  -7.299  -8.465  1.00  0.00     0.022 C 
BRANCH  16  17
ATOM     17  C   UNL     1      17.914  -6.877  -8.169  1.00  0.00     0.002 C 
BRANCH  17  18
ATOM     18  C   UNL     1      18.380  -7.135  -6.738  1.00  0.00     0.000 C 
BRANCH  18  19
ATOM     19  C   UNL     1      17.249  -7.506  -5.770  1.00  0.00    -0.000 C 
BRANCH  19  20
ATOM     20  C   UNL     1      17.677  -8.341  -4.559  1.00  0.00    -0.000 C 
BRANCH  20  21
ATOM     21  C   UNL     1      16.498  -8.789  -3.692  1.00  0.00    -0.003 C 
ATOM     22  C   UNL     1      15.843 -10.043  -4.251  1.00  0.00     0.004 C 
ENDBRANCH  20  21
ENDBRANCH  19  20
ENDBRANCH  18  19
ENDBRANCH  17  18
ENDBRANCH  16  17
ENDBRANCH  12  16
ENDBRANCH   9  12
ENDBRANCH   6   9
ENDBRANCH   3   5
ENDBRANCH   2   3
BRANCH   2  23
ATOM     23  N   UNL     1       9.700  -8.737 -11.711  1.00  0.00    -0.332 N 
ATOM     24  C   UNL     1       8.674  -8.110 -12.531  1.00  0.00     0.147 C 
BRANCH  23  25
ATOM     25  C   UNL     1       9.395  -8.785 -10.254  1.00  0.00     0.174 C 
BRANCH  25  26
ATOM     26  C   UNL     1       8.153  -7.946  -9.871  1.00  0.00     0.038 C 
BRANCH  26  27
ATOM     27  C   UNL     1       6.934  -8.714  -9.313  1.00  0.00    -0.015 C 
ATOM     28  C   UNL     1       7.063 -10.226  -9.494  1.00  0.00     0.007 C 
ATOM     29  C   UNL     1       6.615  -8.372  -7.860  1.00  0.00     0.007 C 
ENDBRANCH  26  27
ENDBRANCH  25  26
BRANCH  25  30
ATOM     30  C   UNL     1      10.658  -8.437  -9.434  1.00  0.00     0.243 C 
ATOM     31  O   UNL     1      11.091  -7.288  -9.365  1.00  0.00    -0.273 OA
ATOM     32  N   UNL     1      11.262  -9.491  -8.799  1.00  0.00    -0.342 N 
ATOM     33  H   UNL     1      10.765 -10.385  -8.788  1.00  0.00     0.164 HD
BRANCH  32  34
ATOM     34  C   UNL     1      12.483  -9.353  -8.000  1.00  0.00     0.175 C 
BRANCH  34  35
ATOM     35  C   UNL     1      12.201  -9.570  -6.506  1.00  0.00     0.070 C 
BRANCH  35  36
ATOM     36  C   UNL     1      12.712  -8.439  -5.643  1.00  0.00    -0.045 A 
ATOM     37  C   UNL     1      13.372  -7.350  -6.233  1.00  0.00     0.007 A 
ATOM     38  C   UNL     1      12.558  -8.469  -4.251  1.00  0.00     0.007 A 
ATOM     39  C   UNL     1      13.860  -6.307  -5.444  1.00  0.00     0.046 A 
ATOM     40  C   UNL     1      13.047  -7.427  -3.460  1.00  0.00     0.046 A 
ATOM     41  C   UNL     1      13.693  -6.354  -4.065  1.00  0.00     0.115 A 
BRANCH  41  42
ATOM     42  O   UNL     1      14.187  -5.317  -3.330  1.00  0.00    -0.508 OA
ATOM     43  H   UNL     1      13.496  -4.636  -3.261  1.00  0.00     0.293 HD
ENDBRANCH  41  42
ENDBRANCH  35  36
ENDBRANCH  34  35
BRANCH  34  44
ATOM     44  C   UNL     1      13.526 -10.355  -8.543  1.00  0.00     0.243 C 
ATOM     45  O   UNL     1      13.497 -10.846  -9.668  1.00  0.00    -0.273 OA
ATOM     46  N   UNL     1      14.442 -10.761  -7.595  1.00  0.00    -0.341 N 
ATOM     47  H   UNL     1      14.354 -10.415  -6.643  1.00  0.00     0.164 HD
BRANCH  46  48
ATOM     48  C   UNL     1      15.484 -11.757  -7.856  1.00  0.00     0.196 C 
BRANCH  48  49
ATOM     49  C   UNL     1      16.889 -11.152  -7.696  1.00  0.00     0.072 C 
BRANCH  49  50
ATOM     50  C   UNL     1      17.604 -10.986  -9.018  1.00  0.00    -0.045 A 
ATOM     51  C   UNL     1      18.874 -10.391  -9.055  1.00  0.00     0.007 A 
ATOM     52  C   UNL     1      17.009 -11.399 -10.217  1.00  0.00     0.007 A 
ATOM     53  C   UNL     1      19.538 -10.220 -10.270  1.00  0.00     0.046 A 
ATOM     54  C   UNL     1      17.674 -11.226 -11.433  1.00  0.00     0.046 A 
ATOM     55  C   UNL     1      18.934 -10.639 -11.449  1.00  0.00     0.115 A 
BRANCH  55  56
ATOM     56  O   UNL     1      19.615 -10.452 -12.615  1.00  0.00    -0.508 OA
ATOM     57  H   UNL     1      19.680  -9.498 -12.782  1.00  0.00     0.293 HD
ENDBRANCH  55  56
ENDBRANCH  49  50
ENDBRANCH  48  49
BRANCH  48  58
ATOM     58  C   UNL     1      15.312 -12.927  -6.877  1.00  0.00     0.326 C 
ATOM     59  O   UNL     1      15.904 -13.103  -5.824  1.00  0.00    -0.250 OA
BRANCH  58  60
ATOM     60  O   UNL     1      14.378 -13.829  -7.270  1.00  0.00    -0.480 OA
ATOM     61  H   UNL     1      13.928 -14.068  -6.431  1.00  0.00     0.296 HD
ENDBRANCH  58  60
ENDBRANCH  48  58
ENDBRANCH  46  48
ENDBRANCH  34  44
ENDBRANCH  32  34
ENDBRANCH  25  30
ENDBRANCH  23  25
ENDBRANCH   2  23
TORSDOF 28
ENDMDL
MODEL 27
REMARK VINA RESULT:    -4.089     13.396     16.539
REMARK INTER + INTRA:         -16.700
REMARK INTER:                 -11.378
REMARK INTRA:                  -5.323
REMARK UNBOUND:                -6.517
REMARK SMILES CCCCCCC[C@H](N)[C@H](O)C(=O)N[C@H](C)C(=O)N(C)[C@H](CC(C)C)C(=O)N[C@@H](Cc1ccc(O)cc1)C(=O)N[C@@H](Cc1ccc(O)cc1)C(=O)O
REMARK SMILES IDX 18 1 17 2 15 3 16 4 14 5 12 6 13 7 10 9 11 10 8 12 9 13 7 16
REMARK SMILES IDX 6 17 5 18 4 19 3 20 2 21 1 22 19 23 20 24 21 25 22 26 23 27
REMARK SMILES IDX 24 28 25 29 26 30 27 31 28 32 29 34 30 35 31 36 32 37 37 38
REMARK SMILES IDX 33 39 36 40 34 41 35 42 38 44 39 45 40 46 41 48 42 49 43 50
REMARK SMILES IDX 44 51 49 52 45 53 48 54 46 55 47 56 50 58 51 59 52 60
REMARK H PARENT 14 8 11 11 9 14 9 15 28 33 35 43 40 47 47 57 52 61
ROOT
ATOM      1  O   UNL     1      14.970 -11.679  -0.586  1.00  0.00    -0.272 OA
ATOM      2  C   UNL     1      15.057 -10.581  -1.156  1.00  0.00     0.245 C 
ENDROOT
BRANCH   2   3
ATOM      3  C   UNL     1      14.473  -9.332  -0.452  1.00  0.00     0.168 C 
ATOM      4  C   UNL     1      14.661  -9.424   1.058  1.00  0.00     0.041 C 
BRANCH   3   5
ATOM      5  N   UNL     1      14.939  -8.059  -0.980  1.00  0.00    -0.342 N 
ATOM      6  C   UNL     1      16.124  -7.489  -0.565  1.00  0.00     0.251 C 
ATOM      7  O   UNL     1      16.846  -7.980   0.296  1.00  0.00    -0.272 OA
ATOM      8  H   UNL     1      14.407  -7.540  -1.675  1.00  0.00     0.164 HD
BRANCH   6   9
ATOM      9  C   UNL     1      16.483  -6.222  -1.358  1.00  0.00     0.219 C 
BRANCH   9  10
ATOM     10  O   UNL     1      17.833  -6.235  -1.838  1.00  0.00    -0.382 OA
ATOM     11  H   UNL     1      17.975  -5.315  -2.153  1.00  0.00     0.211 HD
ENDBRANCH   9  10
BRANCH   9  12
ATOM     12  C   UNL     1      15.491  -5.924  -2.513  1.00  0.00     0.089 C 
BRANCH  12  13
ATOM     13  N   UNL     1      14.458  -4.990  -2.012  1.00  0.00    -0.325 NA
ATOM     14  H   UNL     1      13.533  -5.348  -2.258  1.00  0.00     0.119 HD
ATOM     15  H   UNL     1      14.542  -4.103  -2.514  1.00  0.00     0.119 HD
ENDBRANCH  12  13
BRANCH  12  16
ATOM     16  C   UNL     1      16.116  -5.376  -3.819  1.00  0.00     0.022 C 
BRANCH  16  17
ATOM     17  C   UNL     1      16.097  -6.251  -5.080  1.00  0.00     0.002 C 
BRANCH  17  18
ATOM     18  C   UNL     1      17.452  -6.828  -5.484  1.00  0.00     0.000 C 
BRANCH  18  19
ATOM     19  C   UNL     1      17.668  -6.914  -7.000  1.00  0.00    -0.000 C 
BRANCH  19  20
ATOM     20  C   UNL     1      16.387  -6.922  -7.840  1.00  0.00    -0.000 C 
BRANCH  20  21
ATOM     21  C   UNL     1      16.504  -7.776  -9.104  1.00  0.00    -0.003 C 
ATOM     22  C   UNL     1      16.963  -6.947 -10.294  1.00  0.00     0.004 C 
ENDBRANCH  20  21
ENDBRANCH  19  20
ENDBRANCH  18  19
ENDBRANCH  17  18
ENDBRANCH  16  17
ENDBRANCH  12  16
ENDBRANCH   9  12
ENDBRANCH   6   9
ENDBRANCH   3   5
ENDBRANCH   2   3
BRANCH   2  23
ATOM     23  N   UNL     1      15.775 -10.469  -2.343  1.00  0.00    -0.332 N 
ATOM     24  C   UNL     1      17.191 -10.144  -2.424  1.00  0.00     0.147 C 
BRANCH  23  25
ATOM     25  C   UNL     1      15.135 -10.813  -3.642  1.00  0.00     0.174 C 
BRANCH  25  26
ATOM     26  C   UNL     1      16.070 -10.582  -4.853  1.00  0.00     0.038 C 
BRANCH  26  27
ATOM     27  C   UNL     1      15.721 -11.329  -6.160  1.00  0.00    -0.015 C 
ATOM     28  C   UNL     1      14.914 -12.602  -5.907  1.00  0.00     0.007 C 
ATOM     29  C   UNL     1      15.026 -10.449  -7.195  1.00  0.00     0.007 C 
ENDBRANCH  26  27
ENDBRANCH  25  26
BRANCH  25  30
ATOM     30  C   UNL     1      13.769 -10.101  -3.768  1.00  0.00     0.243 C 
ATOM     31  O   UNL     1      12.706 -10.708  -3.643  1.00  0.00    -0.273 OA
ATOM     32  N   UNL     1      13.822  -8.757  -4.033  1.00  0.00    -0.342 N 
ATOM     33  H   UNL     1      14.736  -8.300  -3.982  1.00  0.00     0.164 HD
BRANCH  32  34
ATOM     34  C   UNL     1      12.628  -7.927  -4.211  1.00  0.00     0.175 C 
BRANCH  34  35
ATOM     35  C   UNL     1      11.697  -8.511  -5.285  1.00  0.00     0.070 C 
BRANCH  35  36
ATOM     36  C   UNL     1      12.061  -8.061  -6.682  1.00  0.00    -0.045 A 
ATOM     37  C   UNL     1      11.782  -8.888  -7.781  1.00  0.00     0.007 A 
ATOM     38  C   UNL     1      12.699  -6.833  -6.899  1.00  0.00     0.007 A 
ATOM     39  C   UNL     1      12.127  -8.488  -9.072  1.00  0.00     0.046 A 
ATOM     40  C   UNL     1      13.046  -6.432  -8.191  1.00  0.00     0.046 A 
ATOM     41  C   UNL     1      12.755  -7.264  -9.267  1.00  0.00     0.115 A 
BRANCH  41  42
ATOM     42  O   UNL     1      13.078  -6.912 -10.544  1.00  0.00    -0.508 OA
ATOM     43  H   UNL     1      12.968  -7.692 -11.112  1.00  0.00     0.293 HD
ENDBRANCH  41  42
ENDBRANCH  35  36
ENDBRANCH  34  35
BRANCH  34  44
ATOM     44  C   UNL     1      11.923  -7.802  -2.842  1.00  0.00     0.243 C 
ATOM     45  O   UNL     1      12.288  -7.055  -1.939  1.00  0.00    -0.273 OA
ATOM     46  N   UNL     1      10.902  -8.712  -2.665  1.00  0.00    -0.341 N 
ATOM     47  H   UNL     1      10.712  -9.390  -3.399  1.00  0.00     0.164 HD
BRANCH  46  48
ATOM     48  C   UNL     1      10.134  -8.831  -1.424  1.00  0.00     0.196 C 
BRANCH  48  49
ATOM     49  C   UNL     1       8.662  -9.176  -1.707  1.00  0.00     0.072 C 
BRANCH  49  50
ATOM     50  C   UNL     1       7.702  -8.371  -0.861  1.00  0.00    -0.045 A 
ATOM     51  C   UNL     1       8.166  -7.257  -0.146  1.00  0.00     0.007 A 
ATOM     52  C   UNL     1       6.353  -8.732  -0.760  1.00  0.00     0.007 A 
ATOM     53  C   UNL     1       7.293  -6.514   0.649  1.00  0.00     0.046 A 
ATOM     54  C   UNL     1       5.479  -7.989   0.037  1.00  0.00     0.046 A 
ATOM     55  C   UNL     1       5.957  -6.885   0.734  1.00  0.00     0.115 A 
BRANCH  55  56
ATOM     56  O   UNL     1       5.136  -6.134   1.523  1.00  0.00    -0.508 OA
ATOM     57  H   UNL     1       4.915  -5.318   1.046  1.00  0.00     0.293 HD
ENDBRANCH  55  56
ENDBRANCH  49  50
ENDBRANCH  48  49
BRANCH  48  58
ATOM     58  C   UNL     1      10.761  -9.926  -0.551  1.00  0.00     0.326 C 
ATOM     59  O   UNL     1      10.866  -9.933   0.665  1.00  0.00    -0.250 OA
BRANCH  58  60
ATOM     60  O   UNL     1      11.221 -10.987  -1.261  1.00  0.00    -0.480 OA
ATOM     61  H   UNL     1      11.214 -11.718  -0.605  1.00  0.00     0.296 HD
ENDBRANCH  58  60
ENDBRANCH  48  58
ENDBRANCH  46  48
ENDBRANCH  34  44
ENDBRANCH  32  34
ENDBRANCH  25  30
ENDBRANCH  23  25
ENDBRANCH   2  23
TORSDOF 28
ENDMDL
MODEL 28
REMARK VINA RESULT:    -4.089      6.093     11.205
REMARK INTER + INTRA:         -16.700
REMARK INTER:                 -13.965
REMARK INTRA:                  -2.735
REMARK UNBOUND:                -6.517
REMARK SMILES CCCCCCC[C@H](N)[C@H](O)C(=O)N[C@H](C)C(=O)N(C)[C@H](CC(C)C)C(=O)N[C@@H](Cc1ccc(O)cc1)C(=O)N[C@@H](Cc1ccc(O)cc1)C(=O)O
REMARK SMILES IDX 18 1 17 2 15 3 16 4 14 5 12 6 13 7 10 9 11 10 8 12 9 13 7 16
REMARK SMILES IDX 6 17 5 18 4 19 3 20 2 21 1 22 19 23 20 24 21 25 22 26 23 27
REMARK SMILES IDX 24 28 25 29 26 30 27 31 28 32 29 34 30 35 31 36 32 37 37 38
REMARK SMILES IDX 33 39 36 40 34 41 35 42 38 44 39 45 40 46 41 48 42 49 43 50
REMARK SMILES IDX 44 51 49 52 45 53 48 54 46 55 47 56 50 58 51 59 52 60
REMARK H PARENT 14 8 11 11 9 14 9 15 28 33 35 43 40 47 47 57 52 61
ROOT
ATOM      1  O   UNL     1       9.703   6.068   4.676  1.00  0.00    -0.272 OA
ATOM      2  C   UNL     1       8.811   6.929   4.716  1.00  0.00     0.245 C 
ENDROOT
BRANCH   2   3
ATOM      3  C   UNL     1       7.336   6.473   4.596  1.00  0.00     0.168 C 
ATOM      4  C   UNL     1       6.706   6.308   5.975  1.00  0.00     0.041 C 
BRANCH   3   5
ATOM      5  N   UNL     1       6.513   7.292   3.719  1.00  0.00    -0.342 N 
ATOM      6  C   UNL     1       5.809   8.381   4.188  1.00  0.00     0.251 C 
ATOM      7  O   UNL     1       5.788   8.715   5.368  1.00  0.00    -0.272 OA
ATOM      8  H   UNL     1       6.424   7.092   2.726  1.00  0.00     0.164 HD
BRANCH   6   9
ATOM      9  C   UNL     1       5.128   9.177   3.064  1.00  0.00     0.219 C 
BRANCH   9  10
ATOM     10  O   UNL     1       4.795   8.363   1.933  1.00  0.00    -0.382 OA
ATOM     11  H   UNL     1       4.599   9.018   1.227  1.00  0.00     0.211 HD
ENDBRANCH   9  10
BRANCH   9  12
ATOM     12  C   UNL     1       3.891   9.978   3.549  1.00  0.00     0.089 C 
BRANCH  12  13
ATOM     13  N   UNL     1       3.840  11.257   2.803  1.00  0.00    -0.325 NA
ATOM     14  H   UNL     1       4.777  11.663   2.770  1.00  0.00     0.119 HD
ATOM     15  H   UNL     1       3.277  11.926   3.332  1.00  0.00     0.119 HD
ENDBRANCH  12  13
BRANCH  12  16
ATOM     16  C   UNL     1       2.529   9.250   3.448  1.00  0.00     0.022 C 
BRANCH  16  17
ATOM     17  C   UNL     1       2.092   8.322   4.590  1.00  0.00     0.002 C 
BRANCH  17  18
ATOM     18  C   UNL     1       0.702   8.604   5.154  1.00  0.00     0.000 C 
BRANCH  18  19
ATOM     19  C   UNL     1       0.587   9.946   5.890  1.00  0.00    -0.000 C 
BRANCH  19  20
ATOM     20  C   UNL     1      -0.733  10.692   5.680  1.00  0.00    -0.000 C 
BRANCH  20  21
ATOM     21  C   UNL     1      -1.135  10.797   4.206  1.00  0.00    -0.003 C 
ATOM     22  C   UNL     1      -0.137  11.630   3.417  1.00  0.00     0.004 C 
ENDBRANCH  20  21
ENDBRANCH  19  20
ENDBRANCH  18  19
ENDBRANCH  17  18
ENDBRANCH  16  17
ENDBRANCH  12  16
ENDBRANCH   9  12
ENDBRANCH   6   9
ENDBRANCH   3   5
ENDBRANCH   2   3
BRANCH   2  23
ATOM     23  N   UNL     1       9.136   8.254   4.986  1.00  0.00    -0.332 N 
ATOM     24  C   UNL     1       9.123   8.854   6.311  1.00  0.00     0.147 C 
BRANCH  23  25
ATOM     25  C   UNL     1       9.657   9.135   3.904  1.00  0.00     0.174 C 
BRANCH  25  26
ATOM     26  C   UNL     1       9.043  10.554   3.936  1.00  0.00     0.038 C 
BRANCH  26  27
ATOM     27  C   UNL     1       9.910  11.704   3.377  1.00  0.00    -0.015 C 
ATOM     28  C   UNL     1      11.387  11.554   3.744  1.00  0.00     0.007 C 
ATOM     29  C   UNL     1       9.749  11.911   1.873  1.00  0.00     0.007 C 
ENDBRANCH  26  27
ENDBRANCH  25  26
BRANCH  25  30
ATOM     30  C   UNL     1       9.525   8.430   2.534  1.00  0.00     0.243 C 
ATOM     31  O   UNL     1       8.506   8.524   1.851  1.00  0.00    -0.273 OA
ATOM     32  N   UNL     1      10.612   7.694   2.139  1.00  0.00    -0.342 N 
ATOM     33  H   UNL     1      11.469   7.780   2.691  1.00  0.00     0.164 HD
BRANCH  32  34
ATOM     34  C   UNL     1      10.654   6.938   0.884  1.00  0.00     0.175 C 
BRANCH  34  35
ATOM     35  C   UNL     1      10.877   7.866  -0.320  1.00  0.00     0.070 C 
BRANCH  35  36
ATOM     36  C   UNL     1      12.245   8.511  -0.316  1.00  0.00    -0.045 A 
ATOM     37  C   UNL     1      12.471   9.672   0.439  1.00  0.00     0.007 A 
ATOM     38  C   UNL     1      13.293   7.979  -1.078  1.00  0.00     0.007 A 
ATOM     39  C   UNL     1      13.726  10.282   0.439  1.00  0.00     0.046 A 
ATOM     40  C   UNL     1      14.549   8.590  -1.080  1.00  0.00     0.046 A 
ATOM     41  C   UNL     1      14.754   9.736  -0.320  1.00  0.00     0.115 A 
BRANCH  41  42
ATOM     42  O   UNL     1      15.964  10.365  -0.295  1.00  0.00    -0.508 OA
ATOM     43  H   UNL     1      15.824  11.304  -0.500  1.00  0.00     0.293 HD
ENDBRANCH  41  42
ENDBRANCH  35  36
ENDBRANCH  34  35
BRANCH  34  44
ATOM     44  C   UNL     1      11.766   5.872   1.005  1.00  0.00     0.243 C 
ATOM     45  O   UNL     1      11.777   4.808   0.392  1.00  0.00    -0.273 OA
ATOM     46  N   UNL     1      12.701   6.162   1.976  1.00  0.00    -0.341 N 
ATOM     47  H   UNL     1      12.585   7.001   2.539  1.00  0.00     0.164 HD
BRANCH  46  48
ATOM     48  C   UNL     1      13.810   5.268   2.320  1.00  0.00     0.196 C 
BRANCH  48  49
ATOM     49  C   UNL     1      14.752   5.059   1.122  1.00  0.00     0.072 C 
BRANCH  49  50
ATOM     50  C   UNL     1      15.101   3.604   0.904  1.00  0.00    -0.045 A 
ATOM     51  C   UNL     1      16.389   3.251   0.477  1.00  0.00     0.007 A 
ATOM     52  C   UNL     1      14.147   2.597   1.101  1.00  0.00     0.007 A 
ATOM     53  C   UNL     1      16.718   1.913   0.259  1.00  0.00     0.046 A 
ATOM     54  C   UNL     1      14.477   1.257   0.882  1.00  0.00     0.046 A 
ATOM     55  C   UNL     1      15.761   0.927   0.463  1.00  0.00     0.115 A 
BRANCH  55  56
ATOM     56  O   UNL     1      16.122  -0.369   0.238  1.00  0.00    -0.508 OA
ATOM     57  H   UNL     1      15.439  -0.786  -0.311  1.00  0.00     0.293 HD
ENDBRANCH  55  56
ENDBRANCH  49  50
ENDBRANCH  48  49
BRANCH  48  58
ATOM     58  C   UNL     1      14.594   5.874   3.492  1.00  0.00     0.326 C 
ATOM     59  O   UNL     1      14.876   7.048   3.665  1.00  0.00    -0.250 OA
BRANCH  58  60
ATOM     60  O   UNL     1      14.980   4.957   4.415  1.00  0.00    -0.480 OA
ATOM     61  H   UNL     1      14.178   4.402   4.532  1.00  0.00     0.296 HD
ENDBRANCH  58  60
ENDBRANCH  48  58
ENDBRANCH  46  48
ENDBRANCH  34  44
ENDBRANCH  32  34
ENDBRANCH  25  30
ENDBRANCH  23  25
ENDBRANCH   2  23
TORSDOF 28
ENDMDL
MODEL 29
REMARK VINA RESULT:    -4.068     11.068     15.932
REMARK INTER + INTRA:         -16.648
REMARK INTER:                 -11.140
REMARK INTRA:                  -5.508
REMARK UNBOUND:                -6.517
REMARK SMILES CCCCCCC[C@H](N)[C@H](O)C(=O)N[C@H](C)C(=O)N(C)[C@H](CC(C)C)C(=O)N[C@@H](Cc1ccc(O)cc1)C(=O)N[C@@H](Cc1ccc(O)cc1)C(=O)O
REMARK SMILES IDX 18 1 17 2 15 3 16 4 14 5 12 6 13 7 10 9 11 10 8 12 9 13 7 16
REMARK SMILES IDX 6 17 5 18 4 19 3 20 2 21 1 22 19 23 20 24 21 25 22 26 23 27
REMARK SMILES IDX 24 28 25 29 26 30 27 31 28 32 29 34 30 35 31 36 32 37 37 38
REMARK SMILES IDX 33 39 36 40 34 41 35 42 38 44 39 45 40 46 41 48 42 49 43 50
REMARK SMILES IDX 44 51 49 52 45 53 48 54 46 55 47 56 50 58 51 59 52 60
REMARK H PARENT 14 8 11 11 9 14 9 15 28 33 35 43 40 47 47 57 52 61
ROOT
ATOM      1  O   UNL     1      13.005 -10.052  -3.513  1.00  0.00    -0.272 OA
ATOM      2  C   UNL     1      12.319  -9.704  -2.540  1.00  0.00     0.245 C 
ENDROOT
BRANCH   2   3
ATOM      3  C   UNL     1      12.744 -10.174  -1.127  1.00  0.00     0.168 C 
ATOM      4  C   UNL     1      11.977 -11.427  -0.719  1.00  0.00     0.041 C 
BRANCH   3   5
ATOM      5  N   UNL     1      14.178 -10.333  -0.941  1.00  0.00    -0.342 N 
ATOM      6  C   UNL     1      14.978  -9.289  -0.527  1.00  0.00     0.251 C 
ATOM      7  O   UNL     1      14.559  -8.154  -0.326  1.00  0.00    -0.272 OA
ATOM      8  H   UNL     1      14.646 -11.220  -1.110  1.00  0.00     0.164 HD
BRANCH   6   9
ATOM      9  C   UNL     1      16.429  -9.721  -0.261  1.00  0.00     0.219 C 
BRANCH   9  10
ATOM     10  O   UNL     1      16.515 -10.962   0.450  1.00  0.00    -0.382 OA
ATOM     11  H   UNL     1      17.464 -11.022   0.696  1.00  0.00     0.211 HD
ENDBRANCH   9  10
BRANCH   9  12
ATOM     12  C   UNL     1      17.297  -9.762  -1.546  1.00  0.00     0.089 C 
BRANCH  12  13
ATOM     13  N   UNL     1      17.113  -8.487  -2.276  1.00  0.00    -0.325 NA
ATOM     14  H   UNL     1      16.600  -7.832  -1.683  1.00  0.00     0.119 HD
ATOM     15  H   UNL     1      16.504  -8.651  -3.081  1.00  0.00     0.119 HD
ENDBRANCH  12  13
BRANCH  12  16
ATOM     16  C   UNL     1      18.805 -10.042  -1.337  1.00  0.00     0.022 C 
BRANCH  16  17
ATOM     17  C   UNL     1      19.794  -8.869  -1.375  1.00  0.00     0.002 C 
BRANCH  17  18
ATOM     18  C   UNL     1      19.859  -8.038  -0.096  1.00  0.00     0.000 C 
BRANCH  18  19
ATOM     19  C   UNL     1      19.537  -6.552  -0.299  1.00  0.00    -0.000 C 
BRANCH  19  20
ATOM     20  C   UNL     1      19.881  -5.996  -1.684  1.00  0.00    -0.000 C 
BRANCH  20  21
ATOM     21  C   UNL     1      19.142  -4.695  -2.008  1.00  0.00    -0.003 C 
ATOM     22  C   UNL     1      18.416  -4.787  -3.342  1.00  0.00     0.004 C 
ENDBRANCH  20  21
ENDBRANCH  19  20
ENDBRANCH  18  19
ENDBRANCH  17  18
ENDBRANCH  16  17
ENDBRANCH  12  16
ENDBRANCH   9  12
ENDBRANCH   6   9
ENDBRANCH   3   5
ENDBRANCH   2   3
BRANCH   2  23
ATOM     23  N   UNL     1      11.268  -8.810  -2.715  1.00  0.00    -0.332 N 
ATOM     24  C   UNL     1      10.277  -8.898  -3.777  1.00  0.00     0.147 C 
BRANCH  23  25
ATOM     25  C   UNL     1      11.015  -7.742  -1.709  1.00  0.00     0.174 C 
BRANCH  25  26
ATOM     26  C   UNL     1       9.512  -7.555  -1.395  1.00  0.00     0.038 C 
BRANCH  26  27
ATOM     27  C   UNL     1       9.002  -8.121  -0.052  1.00  0.00    -0.015 C 
ATOM     28  C   UNL     1      10.139  -8.441   0.918  1.00  0.00     0.007 C 
ATOM     29  C   UNL     1       7.955  -7.237   0.622  1.00  0.00     0.007 C 
ENDBRANCH  26  27
ENDBRANCH  25  26
BRANCH  25  30
ATOM     30  C   UNL     1      11.730  -6.437  -2.128  1.00  0.00     0.243 C 
ATOM     31  O   UNL     1      11.139  -5.359  -2.179  1.00  0.00    -0.273 OA
ATOM     32  N   UNL     1      13.059  -6.563  -2.442  1.00  0.00    -0.342 N 
ATOM     33  H   UNL     1      13.510  -7.458  -2.240  1.00  0.00     0.164 HD
BRANCH  32  34
ATOM     34  C   UNL     1      13.888  -5.439  -2.885  1.00  0.00     0.175 C 
BRANCH  34  35
ATOM     35  C   UNL     1      15.077  -5.215  -1.939  1.00  0.00     0.070 C 
BRANCH  35  36
ATOM     36  C   UNL     1      14.919  -3.979  -1.082  1.00  0.00    -0.045 A 
ATOM     37  C   UNL     1      13.642  -3.576  -0.661  1.00  0.00     0.007 A 
ATOM     38  C   UNL     1      16.031  -3.210  -0.717  1.00  0.00     0.007 A 
ATOM     39  C   UNL     1      13.485  -2.429   0.118  1.00  0.00     0.046 A 
ATOM     40  C   UNL     1      15.874  -2.061   0.062  1.00  0.00     0.046 A 
ATOM     41  C   UNL     1      14.601  -1.682   0.474  1.00  0.00     0.115 A 
BRANCH  41  42
ATOM     42  O   UNL     1      14.403  -0.567   1.233  1.00  0.00    -0.508 OA
ATOM     43  H   UNL     1      14.790   0.193   0.766  1.00  0.00     0.293 HD
ENDBRANCH  41  42
ENDBRANCH  35  36
ENDBRANCH  34  35
BRANCH  34  44
ATOM     44  C   UNL     1      14.347  -5.724  -4.333  1.00  0.00     0.243 C 
ATOM     45  O   UNL     1      13.975  -5.091  -5.316  1.00  0.00    -0.273 OA
ATOM     46  N   UNL     1      15.128  -6.855  -4.448  1.00  0.00    -0.341 N 
ATOM     47  H   UNL     1      15.313  -7.413  -3.619  1.00  0.00     0.164 HD
BRANCH  46  48
ATOM     48  C   UNL     1      15.625  -7.363  -5.728  1.00  0.00     0.196 C 
BRANCH  48  49
ATOM     49  C   UNL     1      17.007  -6.777  -6.065  1.00  0.00     0.072 C 
BRANCH  49  50
ATOM     50  C   UNL     1      17.366  -6.937  -7.525  1.00  0.00    -0.045 A 
ATOM     51  C   UNL     1      16.355  -6.943  -8.497  1.00  0.00     0.007 A 
ATOM     52  C   UNL     1      18.698  -7.102  -7.925  1.00  0.00     0.007 A 
ATOM     53  C   UNL     1      16.674  -7.102  -9.846  1.00  0.00     0.046 A 
ATOM     54  C   UNL     1      19.017  -7.263  -9.276  1.00  0.00     0.046 A 
ATOM     55  C   UNL     1      18.001  -7.261 -10.225  1.00  0.00     0.115 A 
BRANCH  55  56
ATOM     56  O   UNL     1      18.270  -7.416 -11.553  1.00  0.00    -0.508 OA
ATOM     57  H   UNL     1      17.612  -8.022 -11.929  1.00  0.00     0.293 HD
ENDBRANCH  55  56
ENDBRANCH  49  50
ENDBRANCH  48  49
BRANCH  48  58
ATOM     58  C   UNL     1      15.719  -8.894  -5.655  1.00  0.00     0.326 C 
ATOM     59  O   UNL     1      16.315  -9.559  -4.823  1.00  0.00    -0.250 OA
BRANCH  58  60
ATOM     60  O   UNL     1      15.034  -9.526  -6.641  1.00  0.00    -0.480 OA
ATOM     61  H   UNL     1      15.745  -9.893  -7.210  1.00  0.00     0.296 HD
ENDBRANCH  58  60
ENDBRANCH  48  58
ENDBRANCH  46  48
ENDBRANCH  34  44
ENDBRANCH  32  34
ENDBRANCH  25  30
ENDBRANCH  23  25
ENDBRANCH   2  23
TORSDOF 28
ENDMDL
MODEL 30
REMARK VINA RESULT:    -4.054     14.385     18.632
REMARK INTER + INTRA:         -16.615
REMARK INTER:                  -9.916
REMARK INTRA:                  -6.699
REMARK UNBOUND:                -6.517
REMARK SMILES CCCCCCC[C@H](N)[C@H](O)C(=O)N[C@H](C)C(=O)N(C)[C@H](CC(C)C)C(=O)N[C@@H](Cc1ccc(O)cc1)C(=O)N[C@@H](Cc1ccc(O)cc1)C(=O)O
REMARK SMILES IDX 18 1 17 2 15 3 16 4 14 5 12 6 13 7 10 9 11 10 8 12 9 13 7 16
REMARK SMILES IDX 6 17 5 18 4 19 3 20 2 21 1 22 19 23 20 24 21 25 22 26 23 27
REMARK SMILES IDX 24 28 25 29 26 30 27 31 28 32 29 34 30 35 31 36 32 37 37 38
REMARK SMILES IDX 33 39 36 40 34 41 35 42 38 44 39 45 40 46 41 48 42 49 43 50
REMARK SMILES IDX 44 51 49 52 45 53 48 54 46 55 47 56 50 58 51 59 52 60
REMARK H PARENT 14 8 11 11 9 14 9 15 28 33 35 43 40 47 47 57 52 61
ROOT
ATOM      1  O   UNL     1      15.823  -6.458 -10.499  1.00  0.00    -0.272 OA
ATOM      2  C   UNL     1      15.382  -7.589 -10.245  1.00  0.00     0.245 C 
ENDROOT
BRANCH   2   3
ATOM      3  C   UNL     1      13.851  -7.817 -10.304  1.00  0.00     0.168 C 
ATOM      4  C   UNL     1      13.489  -8.778 -11.431  1.00  0.00     0.041 C 
BRANCH   3   5
ATOM      5  N   UNL     1      13.242  -8.207  -9.042  1.00  0.00    -0.342 N 
ATOM      6  C   UNL     1      12.592  -7.297  -8.235  1.00  0.00     0.251 C 
ATOM      7  O   UNL     1      12.514  -6.100  -8.492  1.00  0.00    -0.272 OA
ATOM      8  H   UNL     1      13.273  -9.167  -8.706  1.00  0.00     0.164 HD
BRANCH   6   9
ATOM      9  C   UNL     1      11.906  -7.957  -7.028  1.00  0.00     0.219 C 
BRANCH   9  10
ATOM     10  O   UNL     1      11.113  -9.092  -7.396  1.00  0.00    -0.382 OA
ATOM     11  H   UNL     1      11.506  -9.382  -8.248  1.00  0.00     0.211 HD
ENDBRANCH   9  10
BRANCH   9  12
ATOM     12  C   UNL     1      12.894  -8.321  -5.889  1.00  0.00     0.089 C 
BRANCH  12  13
ATOM     13  N   UNL     1      13.424  -9.680  -6.147  1.00  0.00    -0.325 NA
ATOM     14  H   UNL     1      12.675 -10.362  -6.015  1.00  0.00     0.119 HD
ATOM     15  H   UNL     1      14.119  -9.905  -5.431  1.00  0.00     0.119 HD
ENDBRANCH  12  13
BRANCH  12  16
ATOM     16  C   UNL     1      14.061  -7.330  -5.662  1.00  0.00     0.022 C 
BRANCH  16  17
ATOM     17  C   UNL     1      14.363  -6.846  -4.237  1.00  0.00     0.002 C 
BRANCH  17  18
ATOM     18  C   UNL     1      13.221  -7.028  -3.239  1.00  0.00     0.000 C 
BRANCH  18  19
ATOM     19  C   UNL     1      13.630  -7.746  -1.946  1.00  0.00    -0.000 C 
BRANCH  19  20
ATOM     20  C   UNL     1      13.635  -6.870  -0.690  1.00  0.00    -0.000 C 
BRANCH  20  21
ATOM     21  C   UNL     1      14.669  -5.742  -0.750  1.00  0.00    -0.003 C 
ATOM     22  C   UNL     1      16.077  -6.289  -0.927  1.00  0.00     0.004 C 
ENDBRANCH  20  21
ENDBRANCH  19  20
ENDBRANCH  18  19
ENDBRANCH  17  18
ENDBRANCH  16  17
ENDBRANCH  12  16
ENDBRANCH   9  12
ENDBRANCH   6   9
ENDBRANCH   3   5
ENDBRANCH   2   3
BRANCH   2  23
ATOM     23  N   UNL     1      16.259  -8.648 -10.037  1.00  0.00    -0.332 N 
ATOM     24  C   UNL     1      17.035  -9.296 -11.083  1.00  0.00     0.147 C 
BRANCH  23  25
ATOM     25  C   UNL     1      16.560  -9.113  -8.655  1.00  0.00     0.174 C 
BRANCH  25  26
ATOM     26  C   UNL     1      18.061  -9.006  -8.296  1.00  0.00     0.038 C 
BRANCH  26  27
ATOM     27  C   UNL     1      18.537  -7.679  -7.665  1.00  0.00    -0.015 C 
ATOM     28  C   UNL     1      19.417  -6.863  -8.612  1.00  0.00     0.007 C 
ATOM     29  C   UNL     1      17.397  -6.822  -7.120  1.00  0.00     0.007 C 
ENDBRANCH  26  27
ENDBRANCH  25  26
BRANCH  25  30
ATOM     30  C   UNL     1      15.965 -10.521  -8.426  1.00  0.00     0.243 C 
ATOM     31  O   UNL     1      14.807 -10.797  -8.739  1.00  0.00    -0.273 OA
ATOM     32  N   UNL     1      16.808 -11.435  -7.848  1.00  0.00    -0.342 N 
ATOM     33  H   UNL     1      17.793 -11.174  -7.748  1.00  0.00     0.164 HD
BRANCH  32  34
ATOM     34  C   UNL     1      16.408 -12.808  -7.532  1.00  0.00     0.175 C 
BRANCH  34  35
ATOM     35  C   UNL     1      17.261 -13.830  -8.300  1.00  0.00     0.070 C 
BRANCH  35  36
ATOM     36  C   UNL     1      18.151 -13.186  -9.338  1.00  0.00    -0.045 A 
ATOM     37  C   UNL     1      19.306 -12.494  -8.942  1.00  0.00     0.007 A 
ATOM     38  C   UNL     1      17.828 -13.248 -10.700  1.00  0.00     0.007 A 
ATOM     39  C   UNL     1      20.126 -11.885  -9.892  1.00  0.00     0.046 A 
ATOM     40  C   UNL     1      18.647 -12.636 -11.652  1.00  0.00     0.046 A 
ATOM     41  C   UNL     1      19.791 -11.961 -11.238  1.00  0.00     0.115 A 
BRANCH  41  42
ATOM     42  O   UNL     1      20.617 -11.349 -12.134  1.00  0.00    -0.508 OA
ATOM     43  H   UNL     1      20.677 -11.910 -12.925  1.00  0.00     0.293 HD
ENDBRANCH  41  42
ENDBRANCH  35  36
ENDBRANCH  34  35
BRANCH  34  44
ATOM     44  C   UNL     1      16.516 -12.999  -6.002  1.00  0.00     0.243 C 
ATOM     45  O   UNL     1      17.063 -13.954  -5.459  1.00  0.00    -0.273 OA
ATOM     46  N   UNL     1      15.818 -12.053  -5.281  1.00  0.00    -0.341 N 
ATOM     47  H   UNL     1      15.282 -11.347  -5.780  1.00  0.00     0.164 HD
BRANCH  46  48
ATOM     48  C   UNL     1      15.718 -12.067  -3.820  1.00  0.00     0.196 C 
BRANCH  48  49
ATOM     49  C   UNL     1      15.383 -10.671  -3.268  1.00  0.00     0.072 C 
BRANCH  49  50
ATOM     50  C   UNL     1      16.619  -9.861  -2.946  1.00  0.00    -0.045 A 
ATOM     51  C   UNL     1      17.221  -9.978  -1.685  1.00  0.00     0.007 A 
ATOM     52  C   UNL     1      17.164  -8.974  -3.882  1.00  0.00     0.007 A 
ATOM     53  C   UNL     1      18.354  -9.227  -1.371  1.00  0.00     0.046 A 
ATOM     54  C   UNL     1      18.297  -8.220  -3.567  1.00  0.00     0.046 A 
ATOM     55  C   UNL     1      18.883  -8.354  -2.314  1.00  0.00     0.115 A 
BRANCH  55  56
ATOM     56  O   UNL     1      19.989  -7.636  -1.967  1.00  0.00    -0.508 OA
ATOM     57  H   UNL     1      20.748  -7.987  -2.459  1.00  0.00     0.293 HD
ENDBRANCH  55  56
ENDBRANCH  49  50
ENDBRANCH  48  49
BRANCH  48  58
ATOM     58  C   UNL     1      14.624 -13.060  -3.404  1.00  0.00     0.326 C 
ATOM     59  O   UNL     1      13.418 -12.879  -3.416  1.00  0.00    -0.250 OA
BRANCH  58  60
ATOM     60  O   UNL     1      15.110 -14.262  -3.000  1.00  0.00    -0.480 OA
ATOM     61  H   UNL     1      14.714 -14.892  -3.641  1.00  0.00     0.296 HD
ENDBRANCH  58  60
ENDBRANCH  48  58
ENDBRANCH  46  48
ENDBRANCH  34  44
ENDBRANCH  32  34
ENDBRANCH  25  30
ENDBRANCH  23  25
ENDBRANCH   2  23
TORSDOF 28
ENDMDL
MODEL 31
REMARK VINA RESULT:    -4.043     13.397     16.962
REMARK INTER + INTRA:         -16.586
REMARK INTER:                  -9.051
REMARK INTRA:                  -7.535
REMARK UNBOUND:                -6.517
REMARK SMILES CCCCCCC[C@H](N)[C@H](O)C(=O)N[C@H](C)C(=O)N(C)[C@H](CC(C)C)C(=O)N[C@@H](Cc1ccc(O)cc1)C(=O)N[C@@H](Cc1ccc(O)cc1)C(=O)O
REMARK SMILES IDX 18 1 17 2 15 3 16 4 14 5 12 6 13 7 10 9 11 10 8 12 9 13 7 16
REMARK SMILES IDX 6 17 5 18 4 19 3 20 2 21 1 22 19 23 20 24 21 25 22 26 23 27
REMARK SMILES IDX 24 28 25 29 26 30 27 31 28 32 29 34 30 35 31 36 32 37 37 38
REMARK SMILES IDX 33 39 36 40 34 41 35 42 38 44 39 45 40 46 41 48 42 49 43 50
REMARK SMILES IDX 44 51 49 52 45 53 48 54 46 55 47 56 50 58 51 59 52 60
REMARK H PARENT 14 8 11 11 9 14 9 15 28 33 35 43 40 47 47 57 52 61
ROOT
ATOM      1  O   UNL     1      14.214 -13.011  -0.408  1.00  0.00    -0.272 OA
ATOM      2  C   UNL     1      13.648 -12.356   0.480  1.00  0.00     0.245 C 
ENDROOT
BRANCH   2   3
ATOM      3  C   UNL     1      14.508 -11.746   1.615  1.00  0.00     0.168 C 
ATOM      4  C   UNL     1      14.905 -12.815   2.627  1.00  0.00     0.041 C 
BRANCH   3   5
ATOM      5  N   UNL     1      15.656 -10.974   1.164  1.00  0.00    -0.342 N 
ATOM      6  C   UNL     1      15.996  -9.770   1.743  1.00  0.00     0.251 C 
ATOM      7  O   UNL     1      15.346  -9.243   2.640  1.00  0.00    -0.272 OA
ATOM      8  H   UNL     1      16.251 -11.293   0.403  1.00  0.00     0.164 HD
BRANCH   6   9
ATOM      9  C   UNL     1      17.320  -9.205   1.205  1.00  0.00     0.219 C 
BRANCH   9  10
ATOM     10  O   UNL     1      18.144 -10.209   0.600  1.00  0.00    -0.382 OA
ATOM     11  H   UNL     1      18.640  -9.715  -0.090  1.00  0.00     0.211 HD
ENDBRANCH   9  10
BRANCH   9  12
ATOM     12  C   UNL     1      17.124  -8.002   0.247  1.00  0.00     0.089 C 
BRANCH  12  13
ATOM     13  N   UNL     1      16.766  -6.813   1.055  1.00  0.00    -0.325 NA
ATOM     14  H   UNL     1      17.352  -6.788   1.892  1.00  0.00     0.119 HD
ATOM     15  H   UNL     1      15.811  -6.925   1.402  1.00  0.00     0.119 HD
ENDBRANCH  12  13
BRANCH  12  16
ATOM     16  C   UNL     1      18.318  -7.673  -0.682  1.00  0.00     0.022 C 
BRANCH  16  17
ATOM     17  C   UNL     1      19.231  -6.490  -0.333  1.00  0.00     0.002 C 
BRANCH  17  18
ATOM     18  C   UNL     1      19.407  -5.461  -1.448  1.00  0.00     0.000 C 
BRANCH  18  19
ATOM     19  C   UNL     1      18.145  -4.640  -1.745  1.00  0.00    -0.000 C 
BRANCH  19  20
ATOM     20  C   UNL     1      17.679  -4.670  -3.204  1.00  0.00    -0.000 C 
BRANCH  20  21
ATOM     21  C   UNL     1      16.244  -5.179  -3.364  1.00  0.00    -0.003 C 
ATOM     22  C   UNL     1      15.562  -5.348  -2.016  1.00  0.00     0.004 C 
ENDBRANCH  20  21
ENDBRANCH  19  20
ENDBRANCH  18  19
ENDBRANCH  17  18
ENDBRANCH  16  17
ENDBRANCH  12  16
ENDBRANCH   9  12
ENDBRANCH   6   9
ENDBRANCH   3   5
ENDBRANCH   2   3
BRANCH   2  23
ATOM     23  N   UNL     1      12.289 -12.078   0.379  1.00  0.00    -0.332 N 
ATOM     24  C   UNL     1      11.231 -13.068   0.519  1.00  0.00     0.147 C 
BRANCH  23  25
ATOM     25  C   UNL     1      11.817 -10.673   0.243  1.00  0.00     0.174 C 
BRANCH  25  26
ATOM     26  C   UNL     1      10.577 -10.366   1.114  1.00  0.00     0.038 C 
BRANCH  26  27
ATOM     27  C   UNL     1      10.834  -9.742   2.504  1.00  0.00    -0.015 C 
ATOM     28  C   UNL     1      11.284 -10.777   3.535  1.00  0.00     0.007 C 
ATOM     29  C   UNL     1      11.803  -8.562   2.470  1.00  0.00     0.007 C 
ENDBRANCH  26  27
ENDBRANCH  25  26
BRANCH  25  30
ATOM     30  C   UNL     1      11.631 -10.317  -1.250  1.00  0.00     0.243 C 
ATOM     31  O   UNL     1      10.554 -10.469  -1.825  1.00  0.00    -0.273 OA
ATOM     32  N   UNL     1      12.743  -9.828  -1.887  1.00  0.00    -0.342 N 
ATOM     33  H   UNL     1      13.556  -9.598  -1.310  1.00  0.00     0.164 HD
BRANCH  32  34
ATOM     34  C   UNL     1      12.759  -9.465  -3.306  1.00  0.00     0.175 C 
BRANCH  34  35
ATOM     35  C   UNL     1      12.660  -7.943  -3.494  1.00  0.00     0.070 C 
BRANCH  35  36
ATOM     36  C   UNL     1      12.780  -7.523  -4.942  1.00  0.00    -0.045 A 
ATOM     37  C   UNL     1      12.070  -8.216  -5.934  1.00  0.00     0.007 A 
ATOM     38  C   UNL     1      13.613  -6.461  -5.315  1.00  0.00     0.007 A 
ATOM     39  C   UNL     1      12.186  -7.845  -7.274  1.00  0.00     0.046 A 
ATOM     40  C   UNL     1      13.731  -6.090  -6.657  1.00  0.00     0.046 A 
ATOM     41  C   UNL     1      13.014  -6.785  -7.625  1.00  0.00     0.115 A 
BRANCH  41  42
ATOM     42  O   UNL     1      13.101  -6.457  -8.945  1.00  0.00    -0.508 OA
ATOM     43  H   UNL     1      13.809  -6.988  -9.345  1.00  0.00     0.293 HD
ENDBRANCH  41  42
ENDBRANCH  35  36
ENDBRANCH  34  35
BRANCH  34  44
ATOM     44  C   UNL     1      14.049 -10.041  -3.933  1.00  0.00     0.243 C 
ATOM     45  O   UNL     1      14.074 -10.956  -4.751  1.00  0.00    -0.273 OA
ATOM     46  N   UNL     1      15.204  -9.517  -3.391  1.00  0.00    -0.341 N 
ATOM     47  H   UNL     1      15.132  -8.844  -2.632  1.00  0.00     0.164 HD
BRANCH  46  48
ATOM     48  C   UNL     1      16.546  -9.957  -3.777  1.00  0.00     0.196 C 
BRANCH  48  49
ATOM     49  C   UNL     1      17.418  -8.771  -4.223  1.00  0.00     0.072 C 
BRANCH  49  50
ATOM     50  C   UNL     1      17.109  -8.318  -5.632  1.00  0.00    -0.045 A 
ATOM     51  C   UNL     1      16.411  -9.169  -6.502  1.00  0.00     0.007 A 
ATOM     52  C   UNL     1      17.528  -7.064  -6.094  1.00  0.00     0.007 A 
ATOM     53  C   UNL     1      16.132  -8.768  -7.808  1.00  0.00     0.046 A 
ATOM     54  C   UNL     1      17.249  -6.663  -7.403  1.00  0.00     0.046 A 
ATOM     55  C   UNL     1      16.552  -7.519  -8.249  1.00  0.00     0.115 A 
BRANCH  55  56
ATOM     56  O   UNL     1      16.261  -7.165  -9.533  1.00  0.00    -0.508 OA
ATOM     57  H   UNL     1      16.685  -6.313  -9.720  1.00  0.00     0.293 HD
ENDBRANCH  55  56
ENDBRANCH  49  50
ENDBRANCH  48  49
BRANCH  48  58
ATOM     58  C   UNL     1      17.205 -10.659  -2.582  1.00  0.00     0.326 C 
ATOM     59  O   UNL     1      18.396 -10.855  -2.404  1.00  0.00    -0.250 OA
BRANCH  58  60
ATOM     60  O   UNL     1      16.318 -11.076  -1.643  1.00  0.00    -0.480 OA
ATOM     61  H   UNL     1      16.129 -10.260  -1.132  1.00  0.00     0.296 HD
ENDBRANCH  58  60
ENDBRANCH  48  58
ENDBRANCH  46  48
ENDBRANCH  34  44
ENDBRANCH  32  34
ENDBRANCH  25  30
ENDBRANCH  23  25
ENDBRANCH   2  23
TORSDOF 28
ENDMDL
MODEL 32
REMARK VINA RESULT:    -4.022     15.604     19.358
REMARK INTER + INTRA:         -16.534
REMARK INTER:                  -9.527
REMARK INTRA:                  -7.007
REMARK UNBOUND:                -6.517
REMARK SMILES CCCCCCC[C@H](N)[C@H](O)C(=O)N[C@H](C)C(=O)N(C)[C@H](CC(C)C)C(=O)N[C@@H](Cc1ccc(O)cc1)C(=O)N[C@@H](Cc1ccc(O)cc1)C(=O)O
REMARK SMILES IDX 18 1 17 2 15 3 16 4 14 5 12 6 13 7 10 9 11 10 8 12 9 13 7 16
REMARK SMILES IDX 6 17 5 18 4 19 3 20 2 21 1 22 19 23 20 24 21 25 22 26 23 27
REMARK SMILES IDX 24 28 25 29 26 30 27 31 28 32 29 34 30 35 31 36 32 37 37 38
REMARK SMILES IDX 33 39 36 40 34 41 35 42 38 44 39 45 40 46 41 48 42 49 43 50
REMARK SMILES IDX 44 51 49 52 45 53 48 54 46 55 47 56 50 58 51 59 52 60
REMARK H PARENT 14 8 11 11 9 14 9 15 28 33 35 43 40 47 47 57 52 61
ROOT
ATOM      1  O   UNL     1      16.794 -12.096  -3.249  1.00  0.00    -0.272 OA
ATOM      2  C   UNL     1      16.123 -12.781  -4.036  1.00  0.00     0.245 C 
ENDROOT
BRANCH   2   3
ATOM      3  C   UNL     1      14.601 -12.514  -4.139  1.00  0.00     0.168 C 
ATOM      4  C   UNL     1      13.878 -13.015  -2.893  1.00  0.00     0.041 C 
BRANCH   3   5
ATOM      5  N   UNL     1      14.242 -11.141  -4.459  1.00  0.00    -0.342 N 
ATOM      6  C   UNL     1      13.089 -10.832  -5.149  1.00  0.00     0.251 C 
ATOM      7  O   UNL     1      12.310 -11.677  -5.577  1.00  0.00    -0.272 OA
ATOM      8  H   UNL     1      14.829 -10.356  -4.186  1.00  0.00     0.164 HD
BRANCH   6   9
ATOM      9  C   UNL     1      12.843  -9.318  -5.248  1.00  0.00     0.219 C 
BRANCH   9  10
ATOM     10  O   UNL     1      13.340  -8.602  -4.110  1.00  0.00    -0.382 OA
ATOM     11  H   UNL     1      14.211  -8.263  -4.414  1.00  0.00     0.211 HD
ENDBRANCH   9  10
BRANCH   9  12
ATOM     12  C   UNL     1      13.378  -8.699  -6.565  1.00  0.00     0.089 C 
BRANCH  12  13
ATOM     13  N   UNL     1      13.890  -9.793  -7.422  1.00  0.00    -0.325 NA
ATOM     14  H   UNL     1      13.233 -10.575  -7.396  1.00  0.00     0.119 HD
ATOM     15  H   UNL     1      14.754 -10.156  -7.013  1.00  0.00     0.119 HD
ENDBRANCH  12  13
BRANCH  12  16
ATOM     16  C   UNL     1      12.377  -7.826  -7.360  1.00  0.00     0.022 C 
BRANCH  16  17
ATOM     17  C   UNL     1      12.822  -6.444  -7.857  1.00  0.00     0.002 C 
BRANCH  17  18
ATOM     18  C   UNL     1      12.756  -6.251  -9.370  1.00  0.00     0.000 C 
BRANCH  18  19
ATOM     19  C   UNL     1      13.459  -7.355 -10.172  1.00  0.00    -0.000 C 
BRANCH  19  20
ATOM     20  C   UNL     1      12.586  -8.057 -11.215  1.00  0.00    -0.000 C 
BRANCH  20  21
ATOM     21  C   UNL     1      12.903  -7.627 -12.650  1.00  0.00    -0.003 C 
ATOM     22  C   UNL     1      11.658  -7.648 -13.523  1.00  0.00     0.004 C 
ENDBRANCH  20  21
ENDBRANCH  19  20
ENDBRANCH  18  19
ENDBRANCH  17  18
ENDBRANCH  16  17
ENDBRANCH  12  16
ENDBRANCH   9  12
ENDBRANCH   6   9
ENDBRANCH   3   5
ENDBRANCH   2   3
BRANCH   2  23
ATOM     23  N   UNL     1      16.755 -13.679  -4.889  1.00  0.00    -0.332 N 
ATOM     24  C   UNL     1      17.987 -14.389  -4.577  1.00  0.00     0.147 C 
BRANCH  23  25
ATOM     25  C   UNL     1      16.112 -14.076  -6.172  1.00  0.00     0.174 C 
BRANCH  25  26
ATOM     26  C   UNL     1      15.947 -15.607  -6.315  1.00  0.00     0.038 C 
BRANCH  26  27
ATOM     27  C   UNL     1      14.709 -16.108  -7.092  1.00  0.00    -0.015 C 
ATOM     28  C   UNL     1      13.562 -15.098  -7.078  1.00  0.00     0.007 C 
ATOM     29  C   UNL     1      15.024 -16.542  -8.521  1.00  0.00     0.007 C 
ENDBRANCH  26  27
ENDBRANCH  25  26
BRANCH  25  30
ATOM     30  C   UNL     1      16.848 -13.416  -7.362  1.00  0.00     0.243 C 
ATOM     31  O   UNL     1      17.822 -13.944  -7.897  1.00  0.00    -0.273 OA
ATOM     32  N   UNL     1      16.346 -12.208  -7.773  1.00  0.00    -0.342 N 
ATOM     33  H   UNL     1      15.454 -11.905  -7.374  1.00  0.00     0.164 HD
BRANCH  32  34
ATOM     34  C   UNL     1      16.932 -11.428  -8.866  1.00  0.00     0.175 C 
BRANCH  34  35
ATOM     35  C   UNL     1      15.860 -10.990  -9.877  1.00  0.00     0.070 C 
BRANCH  35  36
ATOM     36  C   UNL     1      16.447 -10.558 -11.202  1.00  0.00    -0.045 A 
ATOM     37  C   UNL     1      17.820 -10.717 -11.446  1.00  0.00     0.007 A 
ATOM     38  C   UNL     1      15.642  -9.976 -12.189  1.00  0.00     0.007 A 
ATOM     39  C   UNL     1      18.373 -10.309 -12.660  1.00  0.00     0.046 A 
ATOM     40  C   UNL     1      16.195  -9.566 -13.405  1.00  0.00     0.046 A 
ATOM     41  C   UNL     1      17.557  -9.738 -13.630  1.00  0.00     0.115 A 
BRANCH  41  42
ATOM     42  O   UNL     1      18.137  -9.350 -14.801  1.00  0.00    -0.508 OA
ATOM     43  H   UNL     1      18.577  -8.496 -14.654  1.00  0.00     0.293 HD
ENDBRANCH  41  42
ENDBRANCH  35  36
ENDBRANCH  34  35
BRANCH  34  44
ATOM     44  C   UNL     1      17.671 -10.219  -8.249  1.00  0.00     0.243 C 
ATOM     45  O   UNL     1      18.880 -10.024  -8.342  1.00  0.00    -0.273 OA
ATOM     46  N   UNL     1      16.865  -9.427  -7.459  1.00  0.00    -0.341 N 
ATOM     47  H   UNL     1      15.894  -9.696  -7.319  1.00  0.00     0.164 HD
BRANCH  46  48
ATOM     48  C   UNL     1      17.356  -8.265  -6.716  1.00  0.00     0.196 C 
BRANCH  48  49
ATOM     49  C   UNL     1      17.068  -6.956  -7.470  1.00  0.00     0.072 C 
BRANCH  49  50
ATOM     50  C   UNL     1      17.777  -6.885  -8.804  1.00  0.00    -0.045 A 
ATOM     51  C   UNL     1      17.038  -6.958  -9.993  1.00  0.00     0.007 A 
ATOM     52  C   UNL     1      19.171  -6.767  -8.874  1.00  0.00     0.007 A 
ATOM     53  C   UNL     1      17.682  -6.907 -11.230  1.00  0.00     0.046 A 
ATOM     54  C   UNL     1      19.816  -6.717 -10.112  1.00  0.00     0.046 A 
ATOM     55  C   UNL     1      19.065  -6.786 -11.280  1.00  0.00     0.115 A 
BRANCH  55  56
ATOM     56  O   UNL     1      19.656  -6.741 -12.508  1.00  0.00    -0.508 OA
ATOM     57  H   UNL     1      19.438  -5.891 -12.922  1.00  0.00     0.293 HD
ENDBRANCH  55  56
ENDBRANCH  49  50
ENDBRANCH  48  49
BRANCH  48  58
ATOM     58  C   UNL     1      16.676  -8.227  -5.341  1.00  0.00     0.326 C 
ATOM     59  O   UNL     1      16.302  -9.179  -4.675  1.00  0.00    -0.250 OA
BRANCH  58  60
ATOM     60  O   UNL     1      16.509  -6.972  -4.854  1.00  0.00    -0.480 OA
ATOM     61  H   UNL     1      15.993  -6.523  -5.558  1.00  0.00     0.296 HD
ENDBRANCH  58  60
ENDBRANCH  48  58
ENDBRANCH  46  48
ENDBRANCH  34  44
ENDBRANCH  32  34
ENDBRANCH  25  30
ENDBRANCH  23  25
ENDBRANCH   2  23
TORSDOF 28
ENDMDL
MODEL 33
REMARK VINA RESULT:    -4.020     13.015     17.101
REMARK INTER + INTRA:         -16.530
REMARK INTER:                  -9.449
REMARK INTRA:                  -7.081
REMARK UNBOUND:                -6.517
REMARK SMILES CCCCCCC[C@H](N)[C@H](O)C(=O)N[C@H](C)C(=O)N(C)[C@H](CC(C)C)C(=O)N[C@@H](Cc1ccc(O)cc1)C(=O)N[C@@H](Cc1ccc(O)cc1)C(=O)O
REMARK SMILES IDX 18 1 17 2 15 3 16 4 14 5 12 6 13 7 10 9 11 10 8 12 9 13 7 16
REMARK SMILES IDX 6 17 5 18 4 19 3 20 2 21 1 22 19 23 20 24 21 25 22 26 23 27
REMARK SMILES IDX 24 28 25 29 26 30 27 31 28 32 29 34 30 35 31 36 32 37 37 38
REMARK SMILES IDX 33 39 36 40 34 41 35 42 38 44 39 45 40 46 41 48 42 49 43 50
REMARK SMILES IDX 44 51 49 52 45 53 48 54 46 55 47 56 50 58 51 59 52 60
REMARK H PARENT 14 8 11 11 9 14 9 15 28 33 35 43 40 47 47 57 52 61
ROOT
ATOM      1  O   UNL     1      11.547  -7.208  -1.518  1.00  0.00    -0.272 OA
ATOM      2  C   UNL     1      12.785  -7.221  -1.465  1.00  0.00     0.245 C 
ENDROOT
BRANCH   2   3
ATOM      3  C   UNL     1      13.502  -8.573  -1.218  1.00  0.00     0.168 C 
ATOM      4  C   UNL     1      12.889  -9.301  -0.027  1.00  0.00     0.041 C 
BRANCH   3   5
ATOM      5  N   UNL     1      13.602  -9.434  -2.386  1.00  0.00    -0.342 N 
ATOM      6  C   UNL     1      14.771 -10.090  -2.709  1.00  0.00     0.251 C 
ATOM      7  O   UNL     1      15.812  -9.969  -2.072  1.00  0.00    -0.272 OA
ATOM      8  H   UNL     1      12.813  -9.584  -3.011  1.00  0.00     0.164 HD
BRANCH   6   9
ATOM      9  C   UNL     1      14.605 -11.052  -3.896  1.00  0.00     0.219 C 
BRANCH   9  10
ATOM     10  O   UNL     1      13.723 -10.540  -4.902  1.00  0.00    -0.382 OA
ATOM     11  H   UNL     1      14.333 -10.169  -5.577  1.00  0.00     0.211 HD
ENDBRANCH   9  10
BRANCH   9  12
ATOM     12  C   UNL     1      15.956 -11.489  -4.519  1.00  0.00     0.089 C 
BRANCH  12  13
ATOM     13  N   UNL     1      16.406 -12.725  -3.839  1.00  0.00    -0.325 NA
ATOM     14  H   UNL     1      17.264 -12.530  -3.320  1.00  0.00     0.119 HD
ATOM     15  H   UNL     1      16.672 -13.414  -4.546  1.00  0.00     0.119 HD
ENDBRANCH  12  13
BRANCH  12  16
ATOM     16  C   UNL     1      15.960 -11.695  -6.053  1.00  0.00     0.022 C 
BRANCH  16  17
ATOM     17  C   UNL     1      15.973 -13.124  -6.615  1.00  0.00     0.002 C 
BRANCH  17  18
ATOM     18  C   UNL     1      16.430 -13.241  -8.067  1.00  0.00     0.000 C 
BRANCH  18  19
ATOM     19  C   UNL     1      17.940 -13.455  -8.232  1.00  0.00    -0.000 C 
BRANCH  19  20
ATOM     20  C   UNL     1      18.540 -12.892  -9.524  1.00  0.00    -0.000 C 
BRANCH  20  21
ATOM     21  C   UNL     1      19.637 -11.854  -9.273  1.00  0.00    -0.003 C 
ATOM     22  C   UNL     1      19.142 -10.445  -9.558  1.00  0.00     0.004 C 
ENDBRANCH  20  21
ENDBRANCH  19  20
ENDBRANCH  18  19
ENDBRANCH  17  18
ENDBRANCH  16  17
ENDBRANCH  12  16
ENDBRANCH   9  12
ENDBRANCH   6   9
ENDBRANCH   3   5
ENDBRANCH   2   3
BRANCH   2  23
ATOM     23  N   UNL     1      13.506  -6.066  -1.745  1.00  0.00    -0.332 N 
ATOM     24  C   UNL     1      12.922  -4.740  -1.879  1.00  0.00     0.147 C 
BRANCH  23  25
ATOM     25  C   UNL     1      14.994  -6.103  -1.802  1.00  0.00     0.174 C 
BRANCH  25  26
ATOM     26  C   UNL     1      15.659  -5.143  -0.788  1.00  0.00     0.038 C 
BRANCH  26  27
ATOM     27  C   UNL     1      16.382  -5.787   0.416  1.00  0.00    -0.015 C 
ATOM     28  C   UNL     1      15.639  -5.561   1.733  1.00  0.00     0.007 C 
ATOM     29  C   UNL     1      16.686  -7.270   0.219  1.00  0.00     0.007 C 
ENDBRANCH  26  27
ENDBRANCH  25  26
BRANCH  25  30
ATOM     30  C   UNL     1      15.476  -5.902  -3.256  1.00  0.00     0.243 C 
ATOM     31  O   UNL     1      16.181  -4.948  -3.582  1.00  0.00    -0.273 OA
ATOM     32  N   UNL     1      15.062  -6.851  -4.155  1.00  0.00    -0.342 N 
ATOM     33  H   UNL     1      14.600  -7.685  -3.784  1.00  0.00     0.164 HD
BRANCH  32  34
ATOM     34  C   UNL     1      15.400  -6.808  -5.580  1.00  0.00     0.175 C 
BRANCH  34  35
ATOM     35  C   UNL     1      16.324  -7.971  -5.971  1.00  0.00     0.070 C 
BRANCH  35  36
ATOM     36  C   UNL     1      17.363  -7.575  -6.996  1.00  0.00    -0.045 A 
ATOM     37  C   UNL     1      18.718  -7.517  -6.635  1.00  0.00     0.007 A 
ATOM     38  C   UNL     1      16.991  -7.239  -8.304  1.00  0.00     0.007 A 
ATOM     39  C   UNL     1      19.682  -7.138  -7.570  1.00  0.00     0.046 A 
ATOM     40  C   UNL     1      17.956  -6.858  -9.240  1.00  0.00     0.046 A 
ATOM     41  C   UNL     1      19.294  -6.813  -8.864  1.00  0.00     0.115 A 
BRANCH  41  42
ATOM     42  O   UNL     1      20.267  -6.445  -9.746  1.00  0.00    -0.508 OA
ATOM     43  H   UNL     1      21.125  -6.506  -9.295  1.00  0.00     0.293 HD
ENDBRANCH  41  42
ENDBRANCH  35  36
ENDBRANCH  34  35
BRANCH  34  44
ATOM     44  C   UNL     1      14.082  -6.822  -6.386  1.00  0.00     0.243 C 
ATOM     45  O   UNL     1      13.607  -5.844  -6.956  1.00  0.00    -0.273 OA
ATOM     46  N   UNL     1      13.400  -8.018  -6.302  1.00  0.00    -0.341 N 
ATOM     47  H   UNL     1      13.778  -8.762  -5.721  1.00  0.00     0.164 HD
BRANCH  46  48
ATOM     48  C   UNL     1      12.095  -8.247  -6.926  1.00  0.00     0.196 C 
BRANCH  48  49
ATOM     49  C   UNL     1      12.148  -9.417  -7.923  1.00  0.00     0.072 C 
BRANCH  49  50
ATOM     50  C   UNL     1      13.278  -9.282  -8.919  1.00  0.00    -0.045 A 
ATOM     51  C   UNL     1      13.263  -8.238  -9.855  1.00  0.00     0.007 A 
ATOM     52  C   UNL     1      14.336 -10.200  -8.937  1.00  0.00     0.007 A 
ATOM     53  C   UNL     1      14.293  -8.111 -10.787  1.00  0.00     0.046 A 
ATOM     54  C   UNL     1      15.366 -10.074  -9.872  1.00  0.00     0.046 A 
ATOM     55  C   UNL     1      15.336  -9.029 -10.789  1.00  0.00     0.115 A 
BRANCH  55  56
ATOM     56  O   UNL     1      16.322  -8.871 -11.717  1.00  0.00    -0.508 OA
ATOM     57  H   UNL     1      17.160  -8.720 -11.252  1.00  0.00     0.293 HD
ENDBRANCH  55  56
ENDBRANCH  49  50
ENDBRANCH  48  49
BRANCH  48  58
ATOM     58  C   UNL     1      11.064  -8.550  -5.830  1.00  0.00     0.326 C 
ATOM     59  O   UNL     1      11.287  -8.880  -4.677  1.00  0.00    -0.250 OA
BRANCH  58  60
ATOM     60  O   UNL     1       9.779  -8.407  -6.241  1.00  0.00    -0.480 OA
ATOM     61  H   UNL     1       9.639  -7.436  -6.211  1.00  0.00     0.296 HD
ENDBRANCH  58  60
ENDBRANCH  48  58
ENDBRANCH  46  48
ENDBRANCH  34  44
ENDBRANCH  32  34
ENDBRANCH  25  30
ENDBRANCH  23  25
ENDBRANCH   2  23
TORSDOF 28
ENDMDL
MODEL 34
REMARK VINA RESULT:    -4.014     15.222     19.254
REMARK INTER + INTRA:         -16.515
REMARK INTER:                 -10.594
REMARK INTRA:                  -5.921
REMARK UNBOUND:                -6.517
REMARK SMILES CCCCCCC[C@H](N)[C@H](O)C(=O)N[C@H](C)C(=O)N(C)[C@H](CC(C)C)C(=O)N[C@@H](Cc1ccc(O)cc1)C(=O)N[C@@H](Cc1ccc(O)cc1)C(=O)O
REMARK SMILES IDX 18 1 17 2 15 3 16 4 14 5 12 6 13 7 10 9 11 10 8 12 9 13 7 16
REMARK SMILES IDX 6 17 5 18 4 19 3 20 2 21 1 22 19 23 20 24 21 25 22 26 23 27
REMARK SMILES IDX 24 28 25 29 26 30 27 31 28 32 29 34 30 35 31 36 32 37 37 38
REMARK SMILES IDX 33 39 36 40 34 41 35 42 38 44 39 45 40 46 41 48 42 49 43 50
REMARK SMILES IDX 44 51 49 52 45 53 48 54 46 55 47 56 50 58 51 59 52 60
REMARK H PARENT 14 8 11 11 9 14 9 15 28 33 35 43 40 47 47 57 52 61
ROOT
ATOM      1  O   UNL     1      16.142 -10.565  -5.748  1.00  0.00    -0.272 OA
ATOM      2  C   UNL     1      15.081 -10.889  -6.303  1.00  0.00     0.245 C 
ENDROOT
BRANCH   2   3
ATOM      3  C   UNL     1      15.114 -12.019  -7.362  1.00  0.00     0.168 C 
ATOM      4  C   UNL     1      14.301 -13.222  -6.895  1.00  0.00     0.041 C 
BRANCH   3   5
ATOM      5  N   UNL     1      14.747 -11.607  -8.707  1.00  0.00    -0.342 N 
ATOM      6  C   UNL     1      15.636 -10.956  -9.537  1.00  0.00     0.251 C 
ATOM      7  O   UNL     1      16.772 -10.642  -9.198  1.00  0.00    -0.272 OA
ATOM      8  H   UNL     1      13.820 -11.782  -9.088  1.00  0.00     0.164 HD
BRANCH   6   9
ATOM      9  C   UNL     1      15.081 -10.746 -10.955  1.00  0.00     0.219 C 
BRANCH   9  10
ATOM     10  O   UNL     1      14.633 -11.965 -11.559  1.00  0.00    -0.382 OA
ATOM     11  H   UNL     1      15.263 -12.101 -12.301  1.00  0.00     0.211 HD
ENDBRANCH   9  10
BRANCH   9  12
ATOM     12  C   UNL     1      13.975  -9.660 -11.021  1.00  0.00     0.089 C 
BRANCH  12  13
ATOM     13  N   UNL     1      12.674 -10.299 -10.722  1.00  0.00    -0.325 NA
ATOM     14  H   UNL     1      11.971  -9.955 -11.379  1.00  0.00     0.119 HD
ATOM     15  H   UNL     1      12.355  -9.986  -9.802  1.00  0.00     0.119 HD
ENDBRANCH  12  13
BRANCH  12  16
ATOM     16  C   UNL     1      14.183  -8.425 -10.112  1.00  0.00     0.022 C 
BRANCH  16  17
ATOM     17  C   UNL     1      14.849  -7.171 -10.696  1.00  0.00     0.002 C 
BRANCH  17  18
ATOM     18  C   UNL     1      16.245  -6.871 -10.153  1.00  0.00     0.000 C 
BRANCH  18  19
ATOM     19  C   UNL     1      16.418  -7.196  -8.663  1.00  0.00    -0.000 C 
BRANCH  19  20
ATOM     20  C   UNL     1      17.847  -7.055  -8.129  1.00  0.00    -0.000 C 
BRANCH  20  21
ATOM     21  C   UNL     1      18.010  -7.591  -6.705  1.00  0.00    -0.003 C 
ATOM     22  C   UNL     1      17.580  -6.561  -5.672  1.00  0.00     0.004 C 
ENDBRANCH  20  21
ENDBRANCH  19  20
ENDBRANCH  18  19
ENDBRANCH  17  18
ENDBRANCH  16  17
ENDBRANCH  12  16
ENDBRANCH   9  12
ENDBRANCH   6   9
ENDBRANCH   3   5
ENDBRANCH   2   3
BRANCH   2  23
ATOM     23  N   UNL     1      13.879 -10.328  -5.886  1.00  0.00    -0.332 N 
ATOM     24  C   UNL     1      13.195 -10.668  -4.646  1.00  0.00     0.147 C 
BRANCH  23  25
ATOM     25  C   UNL     1      13.263  -9.213  -6.655  1.00  0.00     0.174 C 
BRANCH  25  26
ATOM     26  C   UNL     1      13.066  -7.934  -5.808  1.00  0.00     0.038 C 
BRANCH  26  27
ATOM     27  C   UNL     1      13.772  -6.651  -6.302  1.00  0.00    -0.015 C 
ATOM     28  C   UNL     1      13.085  -6.037  -7.521  1.00  0.00     0.007 C 
ATOM     29  C   UNL     1      13.963  -5.603  -5.208  1.00  0.00     0.007 C 
ENDBRANCH  26  27
ENDBRANCH  25  26
BRANCH  25  30
ATOM     30  C   UNL     1      11.974  -9.698  -7.357  1.00  0.00     0.243 C 
ATOM     31  O   UNL     1      11.894 -10.813  -7.870  1.00  0.00    -0.273 OA
ATOM     32  N   UNL     1      10.934  -8.804  -7.374  1.00  0.00    -0.342 N 
ATOM     33  H   UNL     1      11.028  -7.958  -6.806  1.00  0.00     0.164 HD
BRANCH  32  34
ATOM     34  C   UNL     1       9.648  -9.082  -8.017  1.00  0.00     0.175 C 
BRANCH  34  35
ATOM     35  C   UNL     1       8.482  -8.478  -7.220  1.00  0.00     0.070 C 
BRANCH  35  36
ATOM     36  C   UNL     1       8.437  -8.966  -5.789  1.00  0.00    -0.045 A 
ATOM     37  C   UNL     1       7.416  -9.835  -5.375  1.00  0.00     0.007 A 
ATOM     38  C   UNL     1       9.393  -8.544  -4.855  1.00  0.00     0.007 A 
ATOM     39  C   UNL     1       7.359 -10.280  -4.054  1.00  0.00     0.046 A 
ATOM     40  C   UNL     1       9.335  -8.988  -3.532  1.00  0.00     0.046 A 
ATOM     41  C   UNL     1       8.318  -9.854  -3.144  1.00  0.00     0.115 A 
BRANCH  41  42
ATOM     42  O   UNL     1       8.225 -10.309  -1.862  1.00  0.00    -0.508 OA
ATOM     43  H   UNL     1       8.925 -10.967  -1.720  1.00  0.00     0.293 HD
ENDBRANCH  41  42
ENDBRANCH  35  36
ENDBRANCH  34  35
BRANCH  34  44
ATOM     44  C   UNL     1       9.706  -8.533  -9.461  1.00  0.00     0.243 C 
ATOM     45  O   UNL     1      10.707  -8.047  -9.978  1.00  0.00    -0.273 OA
ATOM     46  N   UNL     1       8.479  -8.515 -10.090  1.00  0.00    -0.341 N 
ATOM     47  H   UNL     1       7.656  -8.821  -9.577  1.00  0.00     0.164 HD
BRANCH  46  48
ATOM     48  C   UNL     1       8.272  -7.977 -11.437  1.00  0.00     0.196 C 
BRANCH  48  49
ATOM     49  C   UNL     1       8.235  -9.098 -12.489  1.00  0.00     0.072 C 
BRANCH  49  50
ATOM     50  C   UNL     1       9.581  -9.334 -13.136  1.00  0.00    -0.045 A 
ATOM     51  C   UNL     1       9.934 -10.622 -13.564  1.00  0.00     0.007 A 
ATOM     52  C   UNL     1      10.496  -8.286 -13.298  1.00  0.00     0.007 A 
ATOM     53  C   UNL     1      11.179 -10.854 -14.150  1.00  0.00     0.046 A 
ATOM     54  C   UNL     1      11.743  -8.519 -13.884  1.00  0.00     0.046 A 
ATOM     55  C   UNL     1      12.073  -9.802 -14.307  1.00  0.00     0.115 A 
BRANCH  55  56
ATOM     56  O   UNL     1      13.279 -10.071 -14.882  1.00  0.00    -0.508 OA
ATOM     57  H   UNL     1      13.960 -10.048 -14.192  1.00  0.00     0.293 HD
ENDBRANCH  55  56
ENDBRANCH  49  50
ENDBRANCH  48  49
BRANCH  48  58
ATOM     58  C   UNL     1       6.949  -7.199 -11.466  1.00  0.00     0.326 C 
ATOM     59  O   UNL     1       6.633  -6.308 -12.237  1.00  0.00    -0.250 OA
BRANCH  58  60
ATOM     60  O   UNL     1       6.067  -7.597 -10.515  1.00  0.00    -0.480 OA
ATOM     61  H   UNL     1       6.019  -6.822  -9.913  1.00  0.00     0.296 HD
ENDBRANCH  58  60
ENDBRANCH  48  58
ENDBRANCH  46  48
ENDBRANCH  34  44
ENDBRANCH  32  34
ENDBRANCH  25  30
ENDBRANCH  23  25
ENDBRANCH   2  23
TORSDOF 28
ENDMDL
MODEL 35
REMARK VINA RESULT:    -4.011     14.016     17.066
REMARK INTER + INTRA:         -16.508
REMARK INTER:                  -9.330
REMARK INTRA:                  -7.178
REMARK UNBOUND:                -6.517
REMARK SMILES CCCCCCC[C@H](N)[C@H](O)C(=O)N[C@H](C)C(=O)N(C)[C@H](CC(C)C)C(=O)N[C@@H](Cc1ccc(O)cc1)C(=O)N[C@@H](Cc1ccc(O)cc1)C(=O)O
REMARK SMILES IDX 18 1 17 2 15 3 16 4 14 5 12 6 13 7 10 9 11 10 8 12 9 13 7 16
REMARK SMILES IDX 6 17 5 18 4 19 3 20 2 21 1 22 19 23 20 24 21 25 22 26 23 27
REMARK SMILES IDX 24 28 25 29 26 30 27 31 28 32 29 34 30 35 31 36 32 37 37 38
REMARK SMILES IDX 33 39 36 40 34 41 35 42 38 44 39 45 40 46 41 48 42 49 43 50
REMARK SMILES IDX 44 51 49 52 45 53 48 54 46 55 47 56 50 58 51 59 52 60
REMARK H PARENT 14 8 11 11 9 14 9 15 28 33 35 43 40 47 47 57 52 61
ROOT
ATOM      1  O   UNL     1      16.062 -10.982  -1.169  1.00  0.00    -0.272 OA
ATOM      2  C   UNL     1      15.290 -10.427  -0.373  1.00  0.00     0.245 C 
ENDROOT
BRANCH   2   3
ATOM      3  C   UNL     1      15.512  -8.929  -0.047  1.00  0.00     0.168 C 
ATOM      4  C   UNL     1      16.513  -8.765   1.092  1.00  0.00     0.041 C 
BRANCH   3   5
ATOM      5  N   UNL     1      15.853  -8.098  -1.192  1.00  0.00    -0.342 N 
ATOM      6  C   UNL     1      14.923  -7.286  -1.805  1.00  0.00     0.251 C 
ATOM      7  O   UNL     1      13.745  -7.232  -1.467  1.00  0.00    -0.272 OA
ATOM      8  H   UNL     1      16.792  -8.086  -1.584  1.00  0.00     0.164 HD
BRANCH   6   9
ATOM      9  C   UNL     1      15.539  -6.396  -2.897  1.00  0.00     0.219 C 
BRANCH   9  10
ATOM     10  O   UNL     1      15.836  -5.075  -2.430  1.00  0.00    -0.382 OA
ATOM     11  H   UNL     1      14.988  -4.773  -2.037  1.00  0.00     0.211 HD
ENDBRANCH   9  10
BRANCH   9  12
ATOM     12  C   UNL     1      16.780  -7.034  -3.574  1.00  0.00     0.089 C 
BRANCH  12  13
ATOM     13  N   UNL     1      16.412  -8.388  -4.045  1.00  0.00    -0.325 NA
ATOM     14  H   UNL     1      17.260  -8.900  -4.294  1.00  0.00     0.119 HD
ATOM     15  H   UNL     1      15.886  -8.304  -4.918  1.00  0.00     0.119 HD
ENDBRANCH  12  13
BRANCH  12  16
ATOM     16  C   UNL     1      17.413  -6.223  -4.730  1.00  0.00     0.022 C 
BRANCH  16  17
ATOM     17  C   UNL     1      17.018  -6.551  -6.176  1.00  0.00     0.002 C 
BRANCH  17  18
ATOM     18  C   UNL     1      18.113  -7.212  -7.010  1.00  0.00     0.000 C 
BRANCH  18  19
ATOM     19  C   UNL     1      17.825  -7.232  -8.517  1.00  0.00    -0.000 C 
BRANCH  19  20
ATOM     20  C   UNL     1      16.379  -6.913  -8.907  1.00  0.00    -0.000 C 
BRANCH  20  21
ATOM     21  C   UNL     1      16.031  -7.354 -10.331  1.00  0.00    -0.003 C 
ATOM     22  C   UNL     1      17.050  -8.346 -10.869  1.00  0.00     0.004 C 
ENDBRANCH  20  21
ENDBRANCH  19  20
ENDBRANCH  18  19
ENDBRANCH  17  18
ENDBRANCH  16  17
ENDBRANCH  12  16
ENDBRANCH   9  12
ENDBRANCH   6   9
ENDBRANCH   3   5
ENDBRANCH   2   3
BRANCH   2  23
ATOM     23  N   UNL     1      14.181 -11.111   0.112  1.00  0.00    -0.332 N 
ATOM     24  C   UNL     1      14.238 -12.387   0.811  1.00  0.00     0.147 C 
BRANCH  23  25
ATOM     25  C   UNL     1      12.829 -10.491   0.051  1.00  0.00     0.174 C 
BRANCH  25  26
ATOM     26  C   UNL     1      11.887 -10.988   1.173  1.00  0.00     0.038 C 
BRANCH  26  27
ATOM     27  C   UNL     1      11.165  -9.909   2.011  1.00  0.00    -0.015 C 
ATOM     28  C   UNL     1      11.498  -8.490   1.549  1.00  0.00     0.007 C 
ATOM     29  C   UNL     1       9.653 -10.108   2.085  1.00  0.00     0.007 C 
ENDBRANCH  26  27
ENDBRANCH  25  26
BRANCH  25  30
ATOM     30  C   UNL     1      12.237 -10.641  -1.369  1.00  0.00     0.243 C 
ATOM     31  O   UNL     1      11.962 -11.742  -1.845  1.00  0.00    -0.273 OA
ATOM     32  N   UNL     1      12.048  -9.472  -2.060  1.00  0.00    -0.342 N 
ATOM     33  H   UNL     1      12.167  -8.595  -1.548  1.00  0.00     0.164 HD
BRANCH  32  34
ATOM     34  C   UNL     1      11.524  -9.425  -3.427  1.00  0.00     0.175 C 
BRANCH  34  35
ATOM     35  C   UNL     1      10.481  -8.308  -3.588  1.00  0.00     0.070 C 
BRANCH  35  36
ATOM     36  C   UNL     1       9.479  -8.277  -2.456  1.00  0.00    -0.045 A 
ATOM     37  C   UNL     1       9.526  -7.246  -1.505  1.00  0.00     0.007 A 
ATOM     38  C   UNL     1       8.510  -9.280  -2.326  1.00  0.00     0.007 A 
ATOM     39  C   UNL     1       8.614  -7.216  -0.449  1.00  0.00     0.046 A 
ATOM     40  C   UNL     1       7.597  -9.252  -1.268  1.00  0.00     0.046 A 
ATOM     41  C   UNL     1       7.658  -8.218  -0.340  1.00  0.00     0.115 A 
BRANCH  41  42
ATOM     42  O   UNL     1       6.787  -8.154   0.708  1.00  0.00    -0.508 OA
ATOM     43  H   UNL     1       6.355  -7.284   0.692  1.00  0.00     0.293 HD
ENDBRANCH  41  42
ENDBRANCH  35  36
ENDBRANCH  34  35
BRANCH  34  44
ATOM     44  C   UNL     1      12.717  -9.244  -4.392  1.00  0.00     0.243 C 
ATOM     45  O   UNL     1      13.857  -9.639  -4.167  1.00  0.00    -0.273 OA
ATOM     46  N   UNL     1      12.419  -8.471  -5.494  1.00  0.00    -0.341 N 
ATOM     47  H   UNL     1      11.489  -8.067  -5.578  1.00  0.00     0.164 HD
BRANCH  46  48
ATOM     48  C   UNL     1      13.406  -8.105  -6.513  1.00  0.00     0.196 C 
BRANCH  48  49
ATOM     49  C   UNL     1      13.210  -8.921  -7.801  1.00  0.00     0.072 C 
BRANCH  49  50
ATOM     50  C   UNL     1      14.375  -9.839  -8.092  1.00  0.00    -0.045 A 
ATOM     51  C   UNL     1      15.459  -9.896  -7.203  1.00  0.00     0.007 A 
ATOM     52  C   UNL     1      14.403 -10.625  -9.251  1.00  0.00     0.007 A 
ATOM     53  C   UNL     1      16.546 -10.729  -7.467  1.00  0.00     0.046 A 
ATOM     54  C   UNL     1      15.492 -11.459  -9.516  1.00  0.00     0.046 A 
ATOM     55  C   UNL     1      16.554 -11.505  -8.620  1.00  0.00     0.115 A 
BRANCH  55  56
ATOM     56  O   UNL     1      17.636 -12.304  -8.842  1.00  0.00    -0.508 OA
ATOM     57  H   UNL     1      17.464 -13.170  -8.439  1.00  0.00     0.293 HD
ENDBRANCH  55  56
ENDBRANCH  49  50
ENDBRANCH  48  49
BRANCH  48  58
ATOM     58  C   UNL     1      13.270  -6.608  -6.825  1.00  0.00     0.326 C 
ATOM     59  O   UNL     1      12.814  -6.104  -7.838  1.00  0.00    -0.250 OA
BRANCH  58  60
ATOM     60  O   UNL     1      13.709  -5.804  -5.825  1.00  0.00    -0.480 OA
ATOM     61  H   UNL     1      12.934  -5.748  -5.224  1.00  0.00     0.296 HD
ENDBRANCH  58  60
ENDBRANCH  48  58
ENDBRANCH  46  48
ENDBRANCH  34  44
ENDBRANCH  32  34
ENDBRANCH  25  30
ENDBRANCH  23  25
ENDBRANCH   2  23
TORSDOF 28
ENDMDL
MODEL 36
REMARK VINA RESULT:    -3.992     13.738     17.031
REMARK INTER + INTRA:         -16.459
REMARK INTER:                 -10.303
REMARK INTRA:                  -6.155
REMARK UNBOUND:                -6.517
REMARK SMILES CCCCCCC[C@H](N)[C@H](O)C(=O)N[C@H](C)C(=O)N(C)[C@H](CC(C)C)C(=O)N[C@@H](Cc1ccc(O)cc1)C(=O)N[C@@H](Cc1ccc(O)cc1)C(=O)O
REMARK SMILES IDX 18 1 17 2 15 3 16 4 14 5 12 6 13 7 10 9 11 10 8 12 9 13 7 16
REMARK SMILES IDX 6 17 5 18 4 19 3 20 2 21 1 22 19 23 20 24 21 25 22 26 23 27
REMARK SMILES IDX 24 28 25 29 26 30 27 31 28 32 29 34 30 35 31 36 32 37 37 38
REMARK SMILES IDX 33 39 36 40 34 41 35 42 38 44 39 45 40 46 41 48 42 49 43 50
REMARK SMILES IDX 44 51 49 52 45 53 48 54 46 55 47 56 50 58 51 59 52 60
REMARK H PARENT 14 8 11 11 9 14 9 15 28 33 35 43 40 47 47 57 52 61
ROOT
ATOM      1  O   UNL     1      17.861  -8.694  -0.799  1.00  0.00    -0.272 OA
ATOM      2  C   UNL     1      16.726  -8.387  -1.192  1.00  0.00     0.245 C 
ENDROOT
BRANCH   2   3
ATOM      3  C   UNL     1      15.534  -9.293  -0.793  1.00  0.00     0.168 C 
ATOM      4  C   UNL     1      14.491  -8.502  -0.011  1.00  0.00     0.041 C 
BRANCH   3   5
ATOM      5  N   UNL     1      14.938 -10.038  -1.891  1.00  0.00    -0.342 N 
ATOM      6  C   UNL     1      14.510 -11.340  -1.739  1.00  0.00     0.251 C 
ATOM      7  O   UNL     1      14.632 -11.975  -0.697  1.00  0.00    -0.272 OA
ATOM      8  H   UNL     1      14.816  -9.628  -2.814  1.00  0.00     0.164 HD
BRANCH   6   9
ATOM      9  C   UNL     1      13.786 -11.877  -2.984  1.00  0.00     0.219 C 
BRANCH   9  10
ATOM     10  O   UNL     1      12.880 -10.922  -3.552  1.00  0.00    -0.382 OA
ATOM     11  H   UNL     1      12.075 -11.009  -2.995  1.00  0.00     0.211 HD
ENDBRANCH   9  10
BRANCH   9  12
ATOM     12  C   UNL     1      14.756 -12.424  -4.064  1.00  0.00     0.089 C 
BRANCH  12  13
ATOM     13  N   UNL     1      15.815 -13.207  -3.386  1.00  0.00    -0.325 NA
ATOM     14  H   UNL     1      16.415 -12.573  -2.856  1.00  0.00     0.119 HD
ATOM     15  H   UNL     1      16.425 -13.621  -4.095  1.00  0.00     0.119 HD
ENDBRANCH  12  13
BRANCH  12  16
ATOM     16  C   UNL     1      14.112 -13.265  -5.191  1.00  0.00     0.022 C 
BRANCH  16  17
ATOM     17  C   UNL     1      14.316 -12.838  -6.651  1.00  0.00     0.002 C 
BRANCH  17  18
ATOM     18  C   UNL     1      13.571 -11.570  -7.062  1.00  0.00     0.000 C 
BRANCH  18  19
ATOM     19  C   UNL     1      14.205 -10.830  -8.248  1.00  0.00    -0.000 C 
BRANCH  19  20
ATOM     20  C   UNL     1      15.247  -9.772  -7.872  1.00  0.00    -0.000 C 
BRANCH  20  21
ATOM     21  C   UNL     1      16.372  -9.647  -8.902  1.00  0.00    -0.003 C 
ATOM     22  C   UNL     1      16.210  -8.397  -9.753  1.00  0.00     0.004 C 
ENDBRANCH  20  21
ENDBRANCH  19  20
ENDBRANCH  18  19
ENDBRANCH  17  18
ENDBRANCH  16  17
ENDBRANCH  12  16
ENDBRANCH   9  12
ENDBRANCH   6   9
ENDBRANCH   3   5
ENDBRANCH   2   3
BRANCH   2  23
ATOM     23  N   UNL     1      16.524  -7.190  -1.871  1.00  0.00    -0.332 N 
ATOM     24  C   UNL     1      16.620  -5.871  -1.263  1.00  0.00     0.147 C 
BRANCH  23  25
ATOM     25  C   UNL     1      16.315  -7.188  -3.345  1.00  0.00     0.174 C 
BRANCH  25  26
ATOM     26  C   UNL     1      17.431  -6.440  -4.110  1.00  0.00     0.038 C 
BRANCH  26  27
ATOM     27  C   UNL     1      17.867  -7.032  -5.469  1.00  0.00    -0.015 C 
ATOM     28  C   UNL     1      16.929  -6.634  -6.608  1.00  0.00     0.007 C 
ATOM     29  C   UNL     1      19.316  -6.718  -5.832  1.00  0.00     0.007 C 
ENDBRANCH  26  27
ENDBRANCH  25  26
BRANCH  25  30
ATOM     30  C   UNL     1      14.890  -6.689  -3.679  1.00  0.00     0.243 C 
ATOM     31  O   UNL     1      14.638  -5.495  -3.829  1.00  0.00    -0.273 OA
ATOM     32  N   UNL     1      13.931  -7.663  -3.789  1.00  0.00    -0.342 N 
ATOM     33  H   UNL     1      14.244  -8.638  -3.791  1.00  0.00     0.164 HD
BRANCH  32  34
ATOM     34  C   UNL     1      12.523  -7.374  -4.074  1.00  0.00     0.175 C 
BRANCH  34  35
ATOM     35  C   UNL     1      11.962  -8.326  -5.141  1.00  0.00     0.070 C 
BRANCH  35  36
ATOM     36  C   UNL     1      12.243  -7.854  -6.550  1.00  0.00    -0.045 A 
ATOM     37  C   UNL     1      11.561  -8.432  -7.632  1.00  0.00     0.007 A 
ATOM     38  C   UNL     1      13.197  -6.859  -6.799  1.00  0.00     0.007 A 
ATOM     39  C   UNL     1      11.823  -8.013  -8.937  1.00  0.00     0.046 A 
ATOM     40  C   UNL     1      13.461  -6.440  -8.105  1.00  0.00     0.046 A 
ATOM     41  C   UNL     1      12.769  -7.021  -9.163  1.00  0.00     0.115 A 
BRANCH  41  42
ATOM     42  O   UNL     1      12.998  -6.643 -10.453  1.00  0.00    -0.508 OA
ATOM     43  H   UNL     1      12.667  -7.343 -11.039  1.00  0.00     0.293 HD
ENDBRANCH  41  42
ENDBRANCH  35  36
ENDBRANCH  34  35
BRANCH  34  44
ATOM     44  C   UNL     1      11.738  -7.467  -2.746  1.00  0.00     0.243 C 
ATOM     45  O   UNL     1      11.821  -6.652  -1.832  1.00  0.00    -0.273 OA
ATOM     46  N   UNL     1      11.016  -8.636  -2.617  1.00  0.00    -0.341 N 
ATOM     47  H   UNL     1      11.072  -9.335  -3.353  1.00  0.00     0.164 HD
BRANCH  46  48
ATOM     48  C   UNL     1      10.247  -8.979  -1.418  1.00  0.00     0.196 C 
BRANCH  48  49
ATOM     49  C   UNL     1       8.765  -9.215  -1.753  1.00  0.00     0.072 C 
BRANCH  49  50
ATOM     50  C   UNL     1       7.835  -8.409  -0.875  1.00  0.00    -0.045 A 
ATOM     51  C   UNL     1       6.480  -8.760  -0.785  1.00  0.00     0.007 A 
ATOM     52  C   UNL     1       8.300  -7.298  -0.161  1.00  0.00     0.007 A 
ATOM     53  C   UNL     1       5.609  -8.016   0.011  1.00  0.00     0.046 A 
ATOM     54  C   UNL     1       7.428  -6.552   0.636  1.00  0.00     0.046 A 
ATOM     55  C   UNL     1       6.089  -6.919   0.716  1.00  0.00     0.115 A 
BRANCH  55  56
ATOM     56  O   UNL     1       5.206  -6.217   1.481  1.00  0.00    -0.508 OA
ATOM     57  H   UNL     1       5.161  -6.634   2.356  1.00  0.00     0.293 HD
ENDBRANCH  55  56
ENDBRANCH  49  50
ENDBRANCH  48  49
BRANCH  48  58
ATOM     58  C   UNL     1      10.842 -10.247  -0.790  1.00  0.00     0.326 C 
ATOM     59  O   UNL     1      11.431 -10.338   0.275  1.00  0.00    -0.250 OA
BRANCH  58  60
ATOM     60  O   UNL     1      10.651 -11.363  -1.538  1.00  0.00    -0.480 OA
ATOM     61  H   UNL     1      11.355 -11.301  -2.220  1.00  0.00     0.296 HD
ENDBRANCH  58  60
ENDBRANCH  48  58
ENDBRANCH  46  48
ENDBRANCH  34  44
ENDBRANCH  32  34
ENDBRANCH  25  30
ENDBRANCH  23  25
ENDBRANCH   2  23
TORSDOF 28
ENDMDL
MODEL 37
REMARK VINA RESULT:    -3.979     14.311     16.858
REMARK INTER + INTRA:         -16.427
REMARK INTER:                 -10.303
REMARK INTRA:                  -6.124
REMARK UNBOUND:                -6.517
REMARK SMILES CCCCCCC[C@H](N)[C@H](O)C(=O)N[C@H](C)C(=O)N(C)[C@H](CC(C)C)C(=O)N[C@@H](Cc1ccc(O)cc1)C(=O)N[C@@H](Cc1ccc(O)cc1)C(=O)O
REMARK SMILES IDX 18 1 17 2 15 3 16 4 14 5 12 6 13 7 10 9 11 10 8 12 9 13 7 16
REMARK SMILES IDX 6 17 5 18 4 19 3 20 2 21 1 22 19 23 20 24 21 25 22 26 23 27
REMARK SMILES IDX 24 28 25 29 26 30 27 31 28 32 29 34 30 35 31 36 32 37 37 38
REMARK SMILES IDX 33 39 36 40 34 41 35 42 38 44 39 45 40 46 41 48 42 49 43 50
REMARK SMILES IDX 44 51 49 52 45 53 48 54 46 55 47 56 50 58 51 59 52 60
REMARK H PARENT 14 8 11 11 9 14 9 15 28 33 35 43 40 47 47 57 52 61
ROOT
ATOM      1  O   UNL     1      16.313 -10.966  -1.387  1.00  0.00    -0.272 OA
ATOM      2  C   UNL     1      15.923 -10.247  -0.455  1.00  0.00     0.245 C 
ENDROOT
BRANCH   2   3
ATOM      3  C   UNL     1      16.638  -8.894  -0.215  1.00  0.00     0.168 C 
ATOM      4  C   UNL     1      17.734  -9.040   0.835  1.00  0.00     0.041 C 
BRANCH   3   5
ATOM      5  N   UNL     1      17.123  -8.237  -1.418  1.00  0.00    -0.342 N 
ATOM      6  C   UNL     1      16.332  -7.373  -2.145  1.00  0.00     0.251 C 
ATOM      7  O   UNL     1      15.164  -7.127  -1.864  1.00  0.00    -0.272 OA
ATOM      8  H   UNL     1      18.065  -8.390  -1.770  1.00  0.00     0.164 HD
BRANCH   6   9
ATOM      9  C   UNL     1      17.095  -6.689  -3.291  1.00  0.00     0.219 C 
BRANCH   9  10
ATOM     10  O   UNL     1      17.809  -5.523  -2.860  1.00  0.00    -0.382 OA
ATOM     11  H   UNL     1      17.358  -4.789  -3.331  1.00  0.00     0.211 HD
ENDBRANCH   9  10
BRANCH   9  12
ATOM     12  C   UNL     1      18.033  -7.655  -4.061  1.00  0.00     0.089 C 
BRANCH  12  13
ATOM     13  N   UNL     1      17.196  -8.628  -4.799  1.00  0.00    -0.325 NA
ATOM     14  H   UNL     1      16.224  -8.313  -4.787  1.00  0.00     0.119 HD
ATOM     15  H   UNL     1      17.194  -9.516  -4.291  1.00  0.00     0.119 HD
ENDBRANCH  12  13
BRANCH  12  16
ATOM     16  C   UNL     1      19.049  -6.992  -5.021  1.00  0.00     0.022 C 
BRANCH  16  17
ATOM     17  C   UNL     1      18.693  -6.856  -6.508  1.00  0.00     0.002 C 
BRANCH  17  18
ATOM     18  C   UNL     1      19.493  -7.756  -7.447  1.00  0.00     0.000 C 
BRANCH  18  19
ATOM     19  C   UNL     1      19.217  -7.507  -8.936  1.00  0.00    -0.000 C 
BRANCH  19  20
ATOM     20  C   UNL     1      17.838  -6.921  -9.252  1.00  0.00    -0.000 C 
BRANCH  20  21
ATOM     21  C   UNL     1      17.152  -7.608 -10.436  1.00  0.00    -0.003 C 
ATOM     22  C   UNL     1      17.631  -9.042 -10.599  1.00  0.00     0.004 C 
ENDBRANCH  20  21
ENDBRANCH  19  20
ENDBRANCH  18  19
ENDBRANCH  17  18
ENDBRANCH  16  17
ENDBRANCH  12  16
ENDBRANCH   9  12
ENDBRANCH   6   9
ENDBRANCH   3   5
ENDBRANCH   2   3
BRANCH   2  23
ATOM     23  N   UNL     1      14.791 -10.602   0.271  1.00  0.00    -0.332 N 
ATOM     24  C   UNL     1      14.733 -11.699   1.226  1.00  0.00     0.147 C 
BRANCH  23  25
ATOM     25  C   UNL     1      13.561  -9.766   0.200  1.00  0.00     0.174 C 
BRANCH  25  26
ATOM     26  C   UNL     1      12.666  -9.905   1.454  1.00  0.00     0.038 C 
BRANCH  26  27
ATOM     27  C   UNL     1      11.159  -9.614   1.274  1.00  0.00    -0.015 C 
ATOM     28  C   UNL     1      10.303 -10.876   1.382  1.00  0.00     0.007 C 
ATOM     29  C   UNL     1      10.635  -8.527   2.209  1.00  0.00     0.007 C 
ENDBRANCH  26  27
ENDBRANCH  25  26
BRANCH  25  30
ATOM     30  C   UNL     1      12.815 -10.028  -1.128  1.00  0.00     0.243 C 
ATOM     31  O   UNL     1      12.454 -11.156  -1.460  1.00  0.00    -0.273 OA
ATOM     32  N   UNL     1      12.590  -8.924  -1.910  1.00  0.00    -0.342 N 
ATOM     33  H   UNL     1      12.792  -8.007  -1.503  1.00  0.00     0.164 HD
BRANCH  32  34
ATOM     34  C   UNL     1      11.923  -8.986  -3.213  1.00  0.00     0.175 C 
BRANCH  34  35
ATOM     35  C   UNL     1      10.781  -7.962  -3.305  1.00  0.00     0.070 C 
BRANCH  35  36
ATOM     36  C   UNL     1       9.722  -8.168  -2.246  1.00  0.00    -0.045 A 
ATOM     37  C   UNL     1       9.020  -9.382  -2.183  1.00  0.00     0.007 A 
ATOM     38  C   UNL     1       9.411  -7.153  -1.333  1.00  0.00     0.007 A 
ATOM     39  C   UNL     1       8.032  -9.577  -1.218  1.00  0.00     0.046 A 
ATOM     40  C   UNL     1       8.420  -7.347  -0.367  1.00  0.00     0.046 A 
ATOM     41  C   UNL     1       7.740  -8.559  -0.318  1.00  0.00     0.115 A 
BRANCH  41  42
ATOM     42  O   UNL     1       6.765  -8.789   0.607  1.00  0.00    -0.508 OA
ATOM     43  H   UNL     1       7.072  -9.490   1.205  1.00  0.00     0.293 HD
ENDBRANCH  41  42
ENDBRANCH  35  36
ENDBRANCH  34  35
BRANCH  34  44
ATOM     44  C   UNL     1      12.989  -8.763  -4.308  1.00  0.00     0.243 C 
ATOM     45  O   UNL     1      14.134  -9.204  -4.262  1.00  0.00    -0.273 OA
ATOM     46  N   UNL     1      12.581  -7.901  -5.304  1.00  0.00    -0.341 N 
ATOM     47  H   UNL     1      11.663  -7.469  -5.238  1.00  0.00     0.164 HD
BRANCH  46  48
ATOM     48  C   UNL     1      13.443  -7.485  -6.413  1.00  0.00     0.196 C 
BRANCH  48  49
ATOM     49  C   UNL     1      12.617  -6.932  -7.587  1.00  0.00     0.072 C 
BRANCH  49  50
ATOM     50  C   UNL     1      13.073  -7.471  -8.924  1.00  0.00    -0.045 A 
ATOM     51  C   UNL     1      13.144  -6.618 -10.035  1.00  0.00     0.007 A 
ATOM     52  C   UNL     1      13.409  -8.822  -9.080  1.00  0.00     0.007 A 
ATOM     53  C   UNL     1      13.550  -7.107 -11.276  1.00  0.00     0.046 A 
ATOM     54  C   UNL     1      13.815  -9.312 -10.323  1.00  0.00     0.046 A 
ATOM     55  C   UNL     1      13.883  -8.449 -11.411  1.00  0.00     0.115 A 
BRANCH  55  56
ATOM     56  O   UNL     1      14.273  -8.888 -12.642  1.00  0.00    -0.508 OA
ATOM     57  H   UNL     1      13.748  -9.672 -12.868  1.00  0.00     0.293 HD
ENDBRANCH  55  56
ENDBRANCH  49  50
ENDBRANCH  48  49
BRANCH  48  58
ATOM     58  C   UNL     1      14.414  -6.407  -5.913  1.00  0.00     0.326 C 
ATOM     59  O   UNL     1      14.203  -5.561  -5.060  1.00  0.00    -0.250 OA
BRANCH  58  60
ATOM     60  O   UNL     1      15.630  -6.454  -6.512  1.00  0.00    -0.480 OA
ATOM     61  H   UNL     1      15.534  -5.837  -7.270  1.00  0.00     0.296 HD
ENDBRANCH  58  60
ENDBRANCH  48  58
ENDBRANCH  46  48
ENDBRANCH  34  44
ENDBRANCH  32  34
ENDBRANCH  25  30
ENDBRANCH  23  25
ENDBRANCH   2  23
TORSDOF 28
ENDMDL
MODEL 38
REMARK VINA RESULT:    -3.976     14.493     19.104
REMARK INTER + INTRA:         -16.419
REMARK INTER:                 -11.362
REMARK INTRA:                  -5.056
REMARK UNBOUND:                -6.517
REMARK SMILES CCCCCCC[C@H](N)[C@H](O)C(=O)N[C@H](C)C(=O)N(C)[C@H](CC(C)C)C(=O)N[C@@H](Cc1ccc(O)cc1)C(=O)N[C@@H](Cc1ccc(O)cc1)C(=O)O
REMARK SMILES IDX 18 1 17 2 15 3 16 4 14 5 12 6 13 7 10 9 11 10 8 12 9 13 7 16
REMARK SMILES IDX 6 17 5 18 4 19 3 20 2 21 1 22 19 23 20 24 21 25 22 26 23 27
REMARK SMILES IDX 24 28 25 29 26 30 27 31 28 32 29 34 30 35 31 36 32 37 37 38
REMARK SMILES IDX 33 39 36 40 34 41 35 42 38 44 39 45 40 46 41 48 42 49 43 50
REMARK SMILES IDX 44 51 49 52 45 53 48 54 46 55 47 56 50 58 51 59 52 60
REMARK H PARENT 14 8 11 11 9 14 9 15 28 33 35 43 40 47 47 57 52 61
ROOT
ATOM      1  O   UNL     1      12.366  -6.135  -8.596  1.00  0.00    -0.272 OA
ATOM      2  C   UNL     1      12.739  -7.190  -8.061  1.00  0.00     0.245 C 
ENDROOT
BRANCH   2   3
ATOM      3  C   UNL     1      12.939  -7.212  -6.525  1.00  0.00     0.168 C 
ATOM      4  C   UNL     1      12.801  -8.630  -5.981  1.00  0.00     0.041 C 
BRANCH   3   5
ATOM      5  N   UNL     1      14.157  -6.568  -6.058  1.00  0.00    -0.342 N 
ATOM      6  C   UNL     1      14.463  -6.477  -4.717  1.00  0.00     0.251 C 
ATOM      7  O   UNL     1      13.727  -6.886  -3.825  1.00  0.00    -0.272 OA
ATOM      8  H   UNL     1      14.829  -6.160  -6.703  1.00  0.00     0.164 HD
BRANCH   6   9
ATOM      9  C   UNL     1      15.861  -5.888  -4.465  1.00  0.00     0.219 C 
BRANCH   9  10
ATOM     10  O   UNL     1      15.922  -5.104  -3.268  1.00  0.00    -0.382 OA
ATOM     11  H   UNL     1      15.934  -4.178  -3.598  1.00  0.00     0.211 HD
ENDBRANCH   9  10
BRANCH   9  12
ATOM     12  C   UNL     1      16.984  -6.957  -4.482  1.00  0.00     0.089 C 
BRANCH  12  13
ATOM     13  N   UNL     1      16.407  -8.235  -4.958  1.00  0.00    -0.325 NA
ATOM     14  H   UNL     1      16.083  -8.776  -4.155  1.00  0.00     0.119 HD
ATOM     15  H   UNL     1      17.150  -8.798  -5.378  1.00  0.00     0.119 HD
ENDBRANCH  12  13
BRANCH  12  16
ATOM     16  C   UNL     1      18.244  -6.603  -5.308  1.00  0.00     0.022 C 
BRANCH  16  17
ATOM     17  C   UNL     1      18.227  -6.821  -6.827  1.00  0.00     0.002 C 
BRANCH  17  18
ATOM     18  C   UNL     1      19.242  -7.838  -7.344  1.00  0.00     0.000 C 
BRANCH  18  19
ATOM     19  C   UNL     1      19.076  -8.188  -8.829  1.00  0.00    -0.000 C 
BRANCH  19  20
ATOM     20  C   UNL     1      19.677  -7.174  -9.806  1.00  0.00    -0.000 C 
BRANCH  20  21
ATOM     21  C   UNL     1      18.621  -6.452 -10.648  1.00  0.00    -0.003 C 
ATOM     22  C   UNL     1      17.363  -7.293 -10.798  1.00  0.00     0.004 C 
ENDBRANCH  20  21
ENDBRANCH  19  20
ENDBRANCH  18  19
ENDBRANCH  17  18
ENDBRANCH  16  17
ENDBRANCH  12  16
ENDBRANCH   9  12
ENDBRANCH   6   9
ENDBRANCH   3   5
ENDBRANCH   2   3
BRANCH   2  23
ATOM     23  N   UNL     1      12.853  -8.351  -8.818  1.00  0.00    -0.332 N 
ATOM     24  C   UNL     1      11.796  -9.338  -8.981  1.00  0.00     0.147 C 
BRANCH  23  25
ATOM     25  C   UNL     1      14.070  -8.596  -9.640  1.00  0.00     0.174 C 
BRANCH  25  26
ATOM     26  C   UNL     1      13.756  -9.269 -10.997  1.00  0.00     0.038 C 
BRANCH  26  27
ATOM     27  C   UNL     1      13.592  -8.337 -12.219  1.00  0.00    -0.015 C 
ATOM     28  C   UNL     1      12.411  -8.736 -13.103  1.00  0.00     0.007 C 
ATOM     29  C   UNL     1      13.510  -6.858 -11.848  1.00  0.00     0.007 C 
ENDBRANCH  26  27
ENDBRANCH  25  26
BRANCH  25  30
ATOM     30  C   UNL     1      15.133  -9.347  -8.806  1.00  0.00     0.243 C 
ATOM     31  O   UNL     1      15.648  -8.847  -7.806  1.00  0.00    -0.273 OA
ATOM     32  N   UNL     1      15.465 -10.599  -9.257  1.00  0.00    -0.342 N 
ATOM     33  H   UNL     1      14.895 -10.999 -10.006  1.00  0.00     0.164 HD
BRANCH  32  34
ATOM     34  C   UNL     1      16.472 -11.444  -8.608  1.00  0.00     0.175 C 
BRANCH  34  35
ATOM     35  C   UNL     1      15.877 -12.795  -8.182  1.00  0.00     0.070 C 
BRANCH  35  36
ATOM     36  C   UNL     1      16.423 -13.283  -6.859  1.00  0.00    -0.045 A 
ATOM     37  C   UNL     1      17.476 -14.210  -6.834  1.00  0.00     0.007 A 
ATOM     38  C   UNL     1      15.875 -12.840  -5.648  1.00  0.00     0.007 A 
ATOM     39  C   UNL     1      17.976 -14.677  -5.618  1.00  0.00     0.046 A 
ATOM     40  C   UNL     1      16.375 -13.308  -4.431  1.00  0.00     0.046 A 
ATOM     41  C   UNL     1      17.423 -14.223  -4.427  1.00  0.00     0.115 A 
BRANCH  41  42
ATOM     42  O   UNL     1      17.939 -14.706  -3.262  1.00  0.00    -0.508 OA
ATOM     43  H   UNL     1      17.899 -15.676  -3.290  1.00  0.00     0.293 HD
ENDBRANCH  41  42
ENDBRANCH  35  36
ENDBRANCH  34  35
BRANCH  34  44
ATOM     44  C   UNL     1      17.655 -11.616  -9.587  1.00  0.00     0.243 C 
ATOM     45  O   UNL     1      18.835 -11.650  -9.250  1.00  0.00    -0.273 OA
ATOM     46  N   UNL     1      17.277 -11.600 -10.913  1.00  0.00    -0.341 N 
ATOM     47  H   UNL     1      16.298 -11.452 -11.146  1.00  0.00     0.164 HD
BRANCH  46  48
ATOM     48  C   UNL     1      18.229 -11.679 -12.023  1.00  0.00     0.196 C 
BRANCH  48  49
ATOM     49  C   UNL     1      19.423 -10.735 -11.806  1.00  0.00     0.072 C 
BRANCH  49  50
ATOM     50  C   UNL     1      19.470  -9.613 -12.819  1.00  0.00    -0.045 A 
ATOM     51  C   UNL     1      20.569  -8.742 -12.847  1.00  0.00     0.007 A 
ATOM     52  C   UNL     1      18.418  -9.414 -13.722  1.00  0.00     0.007 A 
ATOM     53  C   UNL     1      20.617  -7.696 -13.768  1.00  0.00     0.046 A 
ATOM     54  C   UNL     1      18.466  -8.365 -14.644  1.00  0.00     0.046 A 
ATOM     55  C   UNL     1      19.566  -7.516 -14.660  1.00  0.00     0.115 A 
BRANCH  55  56
ATOM     56  O   UNL     1      19.651  -6.480 -15.543  1.00  0.00    -0.508 OA
ATOM     57  H   UNL     1      20.539  -6.484 -15.934  1.00  0.00     0.293 HD
ENDBRANCH  55  56
ENDBRANCH  49  50
ENDBRANCH  48  49
BRANCH  48  58
ATOM     58  C   UNL     1      18.731 -13.124 -12.148  1.00  0.00     0.326 C 
ATOM     59  O   UNL     1      18.178 -14.136 -11.748  1.00  0.00    -0.250 OA
BRANCH  58  60
ATOM     60  O   UNL     1      19.920 -13.230 -12.794  1.00  0.00    -0.480 OA
ATOM     61  H   UNL     1      20.372 -13.959 -12.316  1.00  0.00     0.296 HD
ENDBRANCH  58  60
ENDBRANCH  48  58
ENDBRANCH  46  48
ENDBRANCH  34  44
ENDBRANCH  32  34
ENDBRANCH  25  30
ENDBRANCH  23  25
ENDBRANCH   2  23
TORSDOF 28
ENDMDL
MODEL 39
REMARK VINA RESULT:    -3.969     14.852     19.089
REMARK INTER + INTRA:         -16.401
REMARK INTER:                 -10.986
REMARK INTRA:                  -5.415
REMARK UNBOUND:                -6.517
REMARK SMILES CCCCCCC[C@H](N)[C@H](O)C(=O)N[C@H](C)C(=O)N(C)[C@H](CC(C)C)C(=O)N[C@@H](Cc1ccc(O)cc1)C(=O)N[C@@H](Cc1ccc(O)cc1)C(=O)O
REMARK SMILES IDX 18 1 17 2 15 3 16 4 14 5 12 6 13 7 10 9 11 10 8 12 9 13 7 16
REMARK SMILES IDX 6 17 5 18 4 19 3 20 2 21 1 22 19 23 20 24 21 25 22 26 23 27
REMARK SMILES IDX 24 28 25 29 26 30 27 31 28 32 29 34 30 35 31 36 32 37 37 38
REMARK SMILES IDX 33 39 36 40 34 41 35 42 38 44 39 45 40 46 41 48 42 49 43 50
REMARK SMILES IDX 44 51 49 52 45 53 48 54 46 55 47 56 50 58 51 59 52 60
REMARK H PARENT 14 8 11 11 9 14 9 15 28 33 35 43 40 47 47 57 52 61
ROOT
ATOM      1  O   UNL     1      15.184  -8.098  -3.562  1.00  0.00    -0.272 OA
ATOM      2  C   UNL     1      14.351  -8.000  -4.475  1.00  0.00     0.245 C 
ENDROOT
BRANCH   2   3
ATOM      3  C   UNL     1      12.934  -8.584  -4.252  1.00  0.00     0.168 C 
ATOM      4  C   UNL     1      12.130  -7.706  -3.299  1.00  0.00     0.041 C 
BRANCH   3   5
ATOM      5  N   UNL     1      12.195  -8.879  -5.470  1.00  0.00    -0.342 N 
ATOM      6  C   UNL     1      11.339  -9.956  -5.559  1.00  0.00     0.251 C 
ATOM      7  O   UNL     1      11.166 -10.760  -4.649  1.00  0.00    -0.272 OA
ATOM      8  H   UNL     1      12.283  -8.302  -6.303  1.00  0.00     0.164 HD
BRANCH   6   9
ATOM      9  C   UNL     1      10.562  -9.989  -6.885  1.00  0.00     0.219 C 
BRANCH   9  10
ATOM     10  O   UNL     1      10.581 -11.281  -7.504  1.00  0.00    -0.382 OA
ATOM     11  H   UNL     1      10.537 -11.078  -8.464  1.00  0.00     0.211 HD
ENDBRANCH   9  10
BRANCH   9  12
ATOM     12  C   UNL     1       9.109  -9.463  -6.753  1.00  0.00     0.089 C 
BRANCH  12  13
ATOM     13  N   UNL     1       9.046  -8.553  -5.586  1.00  0.00    -0.325 NA
ATOM     14  H   UNL     1       9.198  -7.593  -5.900  1.00  0.00     0.119 HD
ATOM     15  H   UNL     1       9.831  -8.758  -4.964  1.00  0.00     0.119 HD
ENDBRANCH  12  13
BRANCH  12  16
ATOM     16  C   UNL     1       8.525  -8.764  -8.004  1.00  0.00     0.022 C 
BRANCH  16  17
ATOM     17  C   UNL     1       7.006  -8.570  -8.111  1.00  0.00     0.002 C 
BRANCH  17  18
ATOM     18  C   UNL     1       6.565  -7.195  -8.607  1.00  0.00     0.000 C 
BRANCH  18  19
ATOM     19  C   UNL     1       7.281  -6.731  -9.882  1.00  0.00    -0.000 C 
BRANCH  19  20
ATOM     20  C   UNL     1       6.844  -7.439 -11.167  1.00  0.00    -0.000 C 
BRANCH  20  21
ATOM     21  C   UNL     1       6.761  -6.498 -12.372  1.00  0.00    -0.003 C 
ATOM     22  C   UNL     1       5.369  -6.502 -12.984  1.00  0.00     0.004 C 
ENDBRANCH  20  21
ENDBRANCH  19  20
ENDBRANCH  18  19
ENDBRANCH  17  18
ENDBRANCH  16  17
ENDBRANCH  12  16
ENDBRANCH   9  12
ENDBRANCH   6   9
ENDBRANCH   3   5
ENDBRANCH   2   3
BRANCH   2  23
ATOM     23  N   UNL     1      14.657  -7.272  -5.620  1.00  0.00    -0.332 N 
ATOM     24  C   UNL     1      14.167  -5.931  -5.902  1.00  0.00     0.147 C 
BRANCH  23  25
ATOM     25  C   UNL     1      15.644  -7.798  -6.603  1.00  0.00     0.174 C 
BRANCH  25  26
ATOM     26  C   UNL     1      16.618  -6.712  -7.118  1.00  0.00     0.038 C 
BRANCH  26  27
ATOM     27  C   UNL     1      18.095  -6.832  -6.681  1.00  0.00    -0.015 C 
ATOM     28  C   UNL     1      18.265  -6.748  -5.165  1.00  0.00     0.007 C 
ATOM     29  C   UNL     1      18.792  -8.073  -7.233  1.00  0.00     0.007 C 
ENDBRANCH  26  27
ENDBRANCH  25  26
BRANCH  25  30
ATOM     30  C   UNL     1      14.916  -8.565  -7.731  1.00  0.00     0.243 C 
ATOM     31  O   UNL     1      14.225  -9.556  -7.501  1.00  0.00    -0.273 OA
ATOM     32  N   UNL     1      15.096  -8.071  -8.997  1.00  0.00    -0.342 N 
ATOM     33  H   UNL     1      15.565  -7.166  -9.090  1.00  0.00     0.164 HD
BRANCH  32  34
ATOM     34  C   UNL     1      14.505  -8.684 -10.189  1.00  0.00     0.175 C 
BRANCH  34  35
ATOM     35  C   UNL     1      14.034  -7.619 -11.191  1.00  0.00     0.070 C 
BRANCH  35  36
ATOM     36  C   UNL     1      12.699  -7.955 -11.816  1.00  0.00    -0.045 A 
ATOM     37  C   UNL     1      11.783  -8.764 -11.125  1.00  0.00     0.007 A 
ATOM     38  C   UNL     1      12.366  -7.489 -13.095  1.00  0.00     0.007 A 
ATOM     39  C   UNL     1      10.555  -9.090 -11.700  1.00  0.00     0.046 A 
ATOM     40  C   UNL     1      11.137  -7.817 -13.672  1.00  0.00     0.046 A 
ATOM     41  C   UNL     1      10.241  -8.615 -12.968  1.00  0.00     0.115 A 
BRANCH  41  42
ATOM     42  O   UNL     1       9.032  -8.960 -13.495  1.00  0.00    -0.508 OA
ATOM     43  H   UNL     1       8.359  -8.360 -13.132  1.00  0.00     0.293 HD
ENDBRANCH  41  42
ENDBRANCH  35  36
ENDBRANCH  34  35
BRANCH  34  44
ATOM     44  C   UNL     1      15.555  -9.635 -10.808  1.00  0.00     0.243 C 
ATOM     45  O   UNL     1      16.300 -10.363 -10.159  1.00  0.00    -0.273 OA
ATOM     46  N   UNL     1      15.678  -9.501 -12.175  1.00  0.00    -0.341 N 
ATOM     47  H   UNL     1      15.119  -8.799 -12.655  1.00  0.00     0.164 HD
BRANCH  46  48
ATOM     48  C   UNL     1      16.653 -10.246 -12.974  1.00  0.00     0.196 C 
BRANCH  48  49
ATOM     49  C   UNL     1      16.079 -10.624 -14.349  1.00  0.00     0.072 C 
BRANCH  49  50
ATOM     50  C   UNL     1      14.598 -10.921 -14.300  1.00  0.00    -0.045 A 
ATOM     51  C   UNL     1      14.086 -11.761 -13.300  1.00  0.00     0.007 A 
ATOM     52  C   UNL     1      13.723 -10.385 -15.254  1.00  0.00     0.007 A 
ATOM     53  C   UNL     1      12.723 -12.053 -13.253  1.00  0.00     0.046 A 
ATOM     54  C   UNL     1      12.358 -10.678 -15.207  1.00  0.00     0.046 A 
ATOM     55  C   UNL     1      11.870 -11.509 -14.205  1.00  0.00     0.115 A 
BRANCH  55  56
ATOM     56  O   UNL     1      10.544 -11.821 -14.125  1.00  0.00    -0.508 OA
ATOM     57  H   UNL     1      10.388 -12.278 -13.283  1.00  0.00     0.293 HD
ENDBRANCH  55  56
ENDBRANCH  49  50
ENDBRANCH  48  49
BRANCH  48  58
ATOM     58  C   UNL     1      17.910  -9.384 -13.159  1.00  0.00     0.326 C 
ATOM     59  O   UNL     1      18.789  -9.173 -12.339  1.00  0.00    -0.250 OA
BRANCH  58  60
ATOM     60  O   UNL     1      18.009  -8.831 -14.394  1.00  0.00    -0.480 OA
ATOM     61  H   UNL     1      18.858  -8.338 -14.353  1.00  0.00     0.296 HD
ENDBRANCH  58  60
ENDBRANCH  48  58
ENDBRANCH  46  48
ENDBRANCH  34  44
ENDBRANCH  32  34
ENDBRANCH  25  30
ENDBRANCH  23  25
ENDBRANCH   2  23
TORSDOF 28
ENDMDL
MODEL 40
REMARK VINA RESULT:    -3.943     17.493     20.984
REMARK INTER + INTRA:         -16.338
REMARK INTER:                 -12.795
REMARK INTRA:                  -3.543
REMARK UNBOUND:                -6.517
REMARK SMILES CCCCCCC[C@H](N)[C@H](O)C(=O)N[C@H](C)C(=O)N(C)[C@H](CC(C)C)C(=O)N[C@@H](Cc1ccc(O)cc1)C(=O)N[C@@H](Cc1ccc(O)cc1)C(=O)O
REMARK SMILES IDX 18 1 17 2 15 3 16 4 14 5 12 6 13 7 10 9 11 10 8 12 9 13 7 16
REMARK SMILES IDX 6 17 5 18 4 19 3 20 2 21 1 22 19 23 20 24 21 25 22 26 23 27
REMARK SMILES IDX 24 28 25 29 26 30 27 31 28 32 29 34 30 35 31 36 32 37 37 38
REMARK SMILES IDX 33 39 36 40 34 41 35 42 38 44 39 45 40 46 41 48 42 49 43 50
REMARK SMILES IDX 44 51 49 52 45 53 48 54 46 55 47 56 50 58 51 59 52 60
REMARK H PARENT 14 8 11 11 9 14 9 15 28 33 35 43 40 47 47 57 52 61
ROOT
ATOM      1  O   UNL     1       3.075  -6.098   7.337  1.00  0.00    -0.272 OA
ATOM      2  C   UNL     1       3.137  -6.526   8.499  1.00  0.00     0.245 C 
ENDROOT
BRANCH   2   3
ATOM      3  C   UNL     1       1.880  -6.415   9.397  1.00  0.00     0.168 C 
ATOM      4  C   UNL     1       2.230  -6.688  10.855  1.00  0.00     0.041 C 
BRANCH   3   5
ATOM      5  N   UNL     1       1.125  -5.181   9.243  1.00  0.00    -0.342 N 
ATOM      6  C   UNL     1       1.707  -3.945   9.425  1.00  0.00     0.251 C 
ATOM      7  O   UNL     1       2.875  -3.791   9.767  1.00  0.00    -0.272 OA
ATOM      8  H   UNL     1       0.139  -5.183   8.995  1.00  0.00     0.164 HD
BRANCH   6   9
ATOM      9  C   UNL     1       0.763  -2.785   9.071  1.00  0.00     0.219 C 
BRANCH   9  10
ATOM     10  O   UNL     1       1.466  -1.596   8.689  1.00  0.00    -0.382 OA
ATOM     11  H   UNL     1       1.754  -1.784   7.769  1.00  0.00     0.211 HD
ENDBRANCH   9  10
BRANCH   9  12
ATOM     12  C   UNL     1      -0.296  -3.166   8.004  1.00  0.00     0.089 C 
BRANCH  12  13
ATOM     13  N   UNL     1      -1.492  -2.317   8.208  1.00  0.00    -0.325 NA
ATOM     14  H   UNL     1      -1.473  -1.931   9.154  1.00  0.00     0.119 HD
ATOM     15  H   UNL     1      -2.326  -2.907   8.177  1.00  0.00     0.119 HD
ENDBRANCH  12  13
BRANCH  12  16
ATOM     16  C   UNL     1       0.168  -3.085   6.530  1.00  0.00     0.022 C 
BRANCH  16  17
ATOM     17  C   UNL     1      -0.853  -2.716   5.444  1.00  0.00     0.002 C 
BRANCH  17  18
ATOM     18  C   UNL     1      -1.817  -3.835   5.059  1.00  0.00     0.000 C 
BRANCH  18  19
ATOM     19  C   UNL     1      -1.674  -4.310   3.607  1.00  0.00    -0.000 C 
BRANCH  19  20
ATOM     20  C   UNL     1      -1.853  -3.221   2.546  1.00  0.00    -0.000 C 
BRANCH  20  21
ATOM     21  C   UNL     1      -1.361  -3.646   1.160  1.00  0.00    -0.003 C 
ATOM     22  C   UNL     1      -2.508  -3.733   0.166  1.00  0.00     0.004 C 
ENDBRANCH  20  21
ENDBRANCH  19  20
ENDBRANCH  18  19
ENDBRANCH  17  18
ENDBRANCH  16  17
ENDBRANCH  12  16
ENDBRANCH   9  12
ENDBRANCH   6   9
ENDBRANCH   3   5
ENDBRANCH   2   3
BRANCH   2  23
ATOM     23  N   UNL     1       4.274  -7.200   8.932  1.00  0.00    -0.332 N 
ATOM     24  C   UNL     1       5.389  -6.574   9.628  1.00  0.00     0.147 C 
BRANCH  23  25
ATOM     25  C   UNL     1       4.360  -8.681   8.815  1.00  0.00     0.174 C 
BRANCH  25  26
ATOM     26  C   UNL     1       5.564  -9.277   9.582  1.00  0.00     0.038 C 
BRANCH  26  27
ATOM     27  C   UNL     1       5.245 -10.224  10.760  1.00  0.00    -0.015 C 
ATOM     28  C   UNL     1       6.485 -10.952  11.277  1.00  0.00     0.007 C 
ATOM     29  C   UNL     1       4.508  -9.538  11.907  1.00  0.00     0.007 C 
ENDBRANCH  26  27
ENDBRANCH  25  26
BRANCH  25  30
ATOM     30  C   UNL     1       4.300  -9.102   7.329  1.00  0.00     0.243 C 
ATOM     31  O   UNL     1       3.618 -10.053   6.949  1.00  0.00    -0.273 OA
ATOM     32  N   UNL     1       5.058  -8.350   6.468  1.00  0.00    -0.342 N 
ATOM     33  H   UNL     1       5.482  -7.494   6.835  1.00  0.00     0.164 HD
BRANCH  32  34
ATOM     34  C   UNL     1       5.144  -8.620   5.031  1.00  0.00     0.175 C 
BRANCH  34  35
ATOM     35  C   UNL     1       4.950  -7.336   4.209  1.00  0.00     0.070 C 
BRANCH  35  36
ATOM     36  C   UNL     1       4.806  -7.606   2.728  1.00  0.00    -0.045 A 
ATOM     37  C   UNL     1       4.079  -8.722   2.285  1.00  0.00     0.007 A 
ATOM     38  C   UNL     1       5.411  -6.768   1.782  1.00  0.00     0.007 A 
ATOM     39  C   UNL     1       3.953  -8.987   0.921  1.00  0.00     0.046 A 
ATOM     40  C   UNL     1       5.286  -7.033   0.416  1.00  0.00     0.046 A 
ATOM     41  C   UNL     1       4.556  -8.141  -0.002  1.00  0.00     0.115 A 
BRANCH  41  42
ATOM     42  O   UNL     1       4.411  -8.437  -1.325  1.00  0.00    -0.508 OA
ATOM     43  H   UNL     1       3.520  -8.800  -1.460  1.00  0.00     0.293 HD
ENDBRANCH  41  42
ENDBRANCH  35  36
ENDBRANCH  34  35
BRANCH  34  44
ATOM     44  C   UNL     1       6.510  -9.284   4.749  1.00  0.00     0.243 C 
ATOM     45  O   UNL     1       6.764 -10.466   4.963  1.00  0.00    -0.273 OA
ATOM     46  N   UNL     1       7.482  -8.392   4.349  1.00  0.00    -0.341 N 
ATOM     47  H   UNL     1       7.254  -7.402   4.298  1.00  0.00     0.164 HD
BRANCH  46  48
ATOM     48  C   UNL     1       8.872  -8.777   4.089  1.00  0.00     0.196 C 
BRANCH  48  49
ATOM     49  C   UNL     1       9.460  -7.988   2.907  1.00  0.00     0.072 C 
BRANCH  49  50
ATOM     50  C   UNL     1       8.870  -8.406   1.579  1.00  0.00    -0.045 A 
ATOM     51  C   UNL     1       8.232  -9.649   1.457  1.00  0.00     0.007 A 
ATOM     52  C   UNL     1       8.969  -7.577   0.454  1.00  0.00     0.007 A 
ATOM     53  C   UNL     1       7.696 -10.050   0.234  1.00  0.00     0.046 A 
ATOM     54  C   UNL     1       8.433  -7.980  -0.772  1.00  0.00     0.046 A 
ATOM     55  C   UNL     1       7.800  -9.214  -0.871  1.00  0.00     0.115 A 
BRANCH  55  56
ATOM     56  O   UNL     1       7.264  -9.644  -2.049  1.00  0.00    -0.508 OA
ATOM     57  H   UNL     1       7.684  -9.153  -2.773  1.00  0.00     0.293 HD
ENDBRANCH  55  56
ENDBRANCH  49  50
ENDBRANCH  48  49
BRANCH  48  58
ATOM     58  C   UNL     1       9.706  -8.512   5.350  1.00  0.00     0.326 C 
ATOM     59  O   UNL     1      10.348  -7.509   5.615  1.00  0.00    -0.250 OA
BRANCH  58  60
ATOM     60  O   UNL     1       9.681  -9.536   6.240  1.00  0.00    -0.480 OA
ATOM     61  H   UNL     1      10.583  -9.917   6.172  1.00  0.00     0.296 HD
ENDBRANCH  58  60
ENDBRANCH  48  58
ENDBRANCH  46  48
ENDBRANCH  34  44
ENDBRANCH  32  34
ENDBRANCH  25  30
ENDBRANCH  23  25
ENDBRANCH   2  23
TORSDOF 28
ENDMDL
MODEL 41
REMARK VINA RESULT:    -3.938     14.083     19.087
REMARK INTER + INTRA:         -16.324
REMARK INTER:                 -10.263
REMARK INTRA:                  -6.062
REMARK UNBOUND:                -6.517
REMARK SMILES CCCCCCC[C@H](N)[C@H](O)C(=O)N[C@H](C)C(=O)N(C)[C@H](CC(C)C)C(=O)N[C@@H](Cc1ccc(O)cc1)C(=O)N[C@@H](Cc1ccc(O)cc1)C(=O)O
REMARK SMILES IDX 18 1 17 2 15 3 16 4 14 5 12 6 13 7 10 9 11 10 8 12 9 13 7 16
REMARK SMILES IDX 6 17 5 18 4 19 3 20 2 21 1 22 19 23 20 24 21 25 22 26 23 27
REMARK SMILES IDX 24 28 25 29 26 30 27 31 28 32 29 34 30 35 31 36 32 37 37 38
REMARK SMILES IDX 33 39 36 40 34 41 35 42 38 44 39 45 40 46 41 48 42 49 43 50
REMARK SMILES IDX 44 51 49 52 45 53 48 54 46 55 47 56 50 58 51 59 52 60
REMARK H PARENT 14 8 11 11 9 14 9 15 28 33 35 43 40 47 47 57 52 61
ROOT
ATOM      1  O   UNL     1      14.601 -12.121  -1.060  1.00  0.00    -0.272 OA
ATOM      2  C   UNL     1      13.544 -12.647  -1.436  1.00  0.00     0.245 C 
ENDROOT
BRANCH   2   3
ATOM      3  C   UNL     1      12.373 -12.761  -0.428  1.00  0.00     0.168 C 
ATOM      4  C   UNL     1      12.675 -13.810   0.636  1.00  0.00     0.041 C 
BRANCH   3   5
ATOM      5  N   UNL     1      11.948 -11.500   0.159  1.00  0.00    -0.342 N 
ATOM      6  C   UNL     1      10.825 -10.833  -0.283  1.00  0.00     0.251 C 
ATOM      7  O   UNL     1      10.132 -11.221  -1.217  1.00  0.00    -0.272 OA
ATOM      8  H   UNL     1      12.463 -11.061   0.919  1.00  0.00     0.164 HD
BRANCH   6   9
ATOM      9  C   UNL     1      10.489  -9.602   0.574  1.00  0.00     0.219 C 
BRANCH   9  10
ATOM     10  O   UNL     1      11.075  -9.661   1.881  1.00  0.00    -0.382 OA
ATOM     11  H   UNL     1      12.034  -9.536   1.709  1.00  0.00     0.211 HD
ENDBRANCH   9  10
BRANCH   9  12
ATOM     12  C   UNL     1      10.834  -8.261  -0.124  1.00  0.00     0.089 C 
BRANCH  12  13
ATOM     13  N   UNL     1      11.918  -8.509  -1.102  1.00  0.00    -0.325 NA
ATOM     14  H   UNL     1      12.434  -7.641  -1.258  1.00  0.00     0.119 HD
ATOM     15  H   UNL     1      11.500  -8.737  -2.007  1.00  0.00     0.119 HD
ENDBRANCH  12  13
BRANCH  12  16
ATOM     16  C   UNL     1       9.655  -7.530  -0.810  1.00  0.00     0.022 C 
BRANCH  16  17
ATOM     17  C   UNL     1       8.218  -7.874  -0.393  1.00  0.00     0.002 C 
BRANCH  17  18
ATOM     18  C   UNL     1       7.517  -6.807   0.445  1.00  0.00     0.000 C 
BRANCH  18  19
ATOM     19  C   UNL     1       7.824  -6.891   1.946  1.00  0.00    -0.000 C 
BRANCH  19  20
ATOM     20  C   UNL     1       6.652  -7.335   2.826  1.00  0.00    -0.000 C 
BRANCH  20  21
ATOM     21  C   UNL     1       5.295  -6.859   2.301  1.00  0.00    -0.003 C 
ATOM     22  C   UNL     1       4.418  -8.031   1.888  1.00  0.00     0.004 C 
ENDBRANCH  20  21
ENDBRANCH  19  20
ENDBRANCH  18  19
ENDBRANCH  17  18
ENDBRANCH  16  17
ENDBRANCH  12  16
ENDBRANCH   9  12
ENDBRANCH   6   9
ENDBRANCH   3   5
ENDBRANCH   2   3
BRANCH   2  23
ATOM     23  N   UNL     1      13.382 -13.009  -2.769  1.00  0.00    -0.332 N 
ATOM     24  C   UNL     1      14.463 -13.438  -3.645  1.00  0.00     0.147 C 
BRANCH  23  25
ATOM     25  C   UNL     1      12.020 -13.103  -3.363  1.00  0.00     0.174 C 
BRANCH  25  26
ATOM     26  C   UNL     1      11.714 -14.500  -3.952  1.00  0.00     0.038 C 
BRANCH  26  27
ATOM     27  C   UNL     1      10.827 -15.438  -3.103  1.00  0.00    -0.015 C 
ATOM     28  C   UNL     1      11.646 -16.442  -2.292  1.00  0.00     0.007 C 
ATOM     29  C   UNL     1       9.844 -14.694  -2.203  1.00  0.00     0.007 C 
ENDBRANCH  26  27
ENDBRANCH  25  26
BRANCH  25  30
ATOM     30  C   UNL     1      11.795 -11.945  -4.362  1.00  0.00     0.243 C 
ATOM     31  O   UNL     1      11.722 -12.137  -5.575  1.00  0.00    -0.273 OA
ATOM     32  N   UNL     1      11.689 -10.695  -3.808  1.00  0.00    -0.342 N 
ATOM     33  H   UNL     1      11.618 -10.633  -2.789  1.00  0.00     0.164 HD
BRANCH  32  34
ATOM     34  C   UNL     1      11.501  -9.478  -4.603  1.00  0.00     0.175 C 
BRANCH  34  35
ATOM     35  C   UNL     1      10.334  -8.635  -4.066  1.00  0.00     0.070 C 
BRANCH  35  36
ATOM     36  C   UNL     1       8.991  -9.102  -4.579  1.00  0.00    -0.045 A 
ATOM     37  C   UNL     1       8.077  -9.708  -3.703  1.00  0.00     0.007 A 
ATOM     38  C   UNL     1       8.648  -8.961  -5.930  1.00  0.00     0.007 A 
ATOM     39  C   UNL     1       6.840 -10.155  -4.170  1.00  0.00     0.046 A 
ATOM     40  C   UNL     1       7.411  -9.410  -6.399  1.00  0.00     0.046 A 
ATOM     41  C   UNL     1       6.517 -10.002  -5.513  1.00  0.00     0.115 A 
BRANCH  41  42
ATOM     42  O   UNL     1       5.300 -10.455  -5.929  1.00  0.00    -0.508 OA
ATOM     43  H   UNL     1       4.780 -10.696  -5.144  1.00  0.00     0.293 HD
ENDBRANCH  41  42
ENDBRANCH  35  36
ENDBRANCH  34  35
BRANCH  34  44
ATOM     44  C   UNL     1      12.832  -8.693  -4.597  1.00  0.00     0.243 C 
ATOM     45  O   UNL     1      13.927  -9.180  -4.863  1.00  0.00    -0.273 OA
ATOM     46  N   UNL     1      12.704  -7.400  -4.134  1.00  0.00    -0.341 N 
ATOM     47  H   UNL     1      11.794  -7.077  -3.815  1.00  0.00     0.164 HD
BRANCH  46  48
ATOM     48  C   UNL     1      13.836  -6.485  -3.975  1.00  0.00     0.196 C 
BRANCH  48  49
ATOM     49  C   UNL     1      13.891  -5.457  -5.117  1.00  0.00     0.072 C 
BRANCH  49  50
ATOM     50  C   UNL     1      14.178  -6.092  -6.459  1.00  0.00    -0.045 A 
ATOM     51  C   UNL     1      13.158  -6.196  -7.415  1.00  0.00     0.007 A 
ATOM     52  C   UNL     1      15.448  -6.600  -6.758  1.00  0.00     0.007 A 
ATOM     53  C   UNL     1      13.407  -6.792  -8.652  1.00  0.00     0.046 A 
ATOM     54  C   UNL     1      15.698  -7.198  -7.996  1.00  0.00     0.046 A 
ATOM     55  C   UNL     1      14.674  -7.288  -8.933  1.00  0.00     0.115 A 
BRANCH  55  56
ATOM     56  O   UNL     1      14.877  -7.865 -10.152  1.00  0.00    -0.508 OA
ATOM     57  H   UNL     1      14.376  -8.695 -10.184  1.00  0.00     0.293 HD
ENDBRANCH  55  56
ENDBRANCH  49  50
ENDBRANCH  48  49
BRANCH  48  58
ATOM     58  C   UNL     1      13.704  -5.756  -2.631  1.00  0.00     0.326 C 
ATOM     59  O   UNL     1      14.597  -5.242  -1.978  1.00  0.00    -0.250 OA
BRANCH  58  60
ATOM     60  O   UNL     1      12.428  -5.694  -2.172  1.00  0.00    -0.480 OA
ATOM     61  H   UNL     1      11.958  -5.200  -2.879  1.00  0.00     0.296 HD
ENDBRANCH  58  60
ENDBRANCH  48  58
ENDBRANCH  46  48
ENDBRANCH  34  44
ENDBRANCH  32  34
ENDBRANCH  25  30
ENDBRANCH  23  25
ENDBRANCH   2  23
TORSDOF 28
ENDMDL
MODEL 42
REMARK VINA RESULT:    -3.915     14.221     18.592
REMARK INTER + INTRA:         -16.268
REMARK INTER:                 -10.071
REMARK INTRA:                  -6.196
REMARK UNBOUND:                -6.517
REMARK SMILES CCCCCCC[C@H](N)[C@H](O)C(=O)N[C@H](C)C(=O)N(C)[C@H](CC(C)C)C(=O)N[C@@H](Cc1ccc(O)cc1)C(=O)N[C@@H](Cc1ccc(O)cc1)C(=O)O
REMARK SMILES IDX 18 1 17 2 15 3 16 4 14 5 12 6 13 7 10 9 11 10 8 12 9 13 7 16
REMARK SMILES IDX 6 17 5 18 4 19 3 20 2 21 1 22 19 23 20 24 21 25 22 26 23 27
REMARK SMILES IDX 24 28 25 29 26 30 27 31 28 32 29 34 30 35 31 36 32 37 37 38
REMARK SMILES IDX 33 39 36 40 34 41 35 42 38 44 39 45 40 46 41 48 42 49 43 50
REMARK SMILES IDX 44 51 49 52 45 53 48 54 46 55 47 56 50 58 51 59 52 60
REMARK H PARENT 14 8 11 11 9 14 9 15 28 33 35 43 40 47 47 57 52 61
ROOT
ATOM      1  O   UNL     1      16.031 -10.939  -0.651  1.00  0.00    -0.272 OA
ATOM      2  C   UNL     1      16.326 -10.224  -1.621  1.00  0.00     0.245 C 
ENDROOT
BRANCH   2   3
ATOM      3  C   UNL     1      17.519 -10.644  -2.516  1.00  0.00     0.168 C 
ATOM      4  C   UNL     1      18.845 -10.285  -1.856  1.00  0.00     0.041 C 
BRANCH   3   5
ATOM      5  N   UNL     1      17.491 -12.030  -2.959  1.00  0.00    -0.342 N 
ATOM      6  C   UNL     1      16.787 -12.423  -4.077  1.00  0.00     0.251 C 
ATOM      7  O   UNL     1      16.105 -11.658  -4.751  1.00  0.00    -0.272 OA
ATOM      8  H   UNL     1      17.991 -12.762  -2.459  1.00  0.00     0.164 HD
BRANCH   6   9
ATOM      9  C   UNL     1      17.017 -13.900  -4.435  1.00  0.00     0.219 C 
BRANCH   9  10
ATOM     10  O   UNL     1      18.086 -14.490  -3.686  1.00  0.00    -0.382 OA
ATOM     11  H   UNL     1      17.962 -14.128  -2.781  1.00  0.00     0.211 HD
ENDBRANCH   9  10
BRANCH   9  12
ATOM     12  C   UNL     1      15.731 -14.760  -4.330  1.00  0.00     0.089 C 
BRANCH  12  13
ATOM     13  N   UNL     1      14.656 -13.924  -3.746  1.00  0.00    -0.325 NA
ATOM     14  H   UNL     1      14.689 -12.994  -4.167  1.00  0.00     0.119 HD
ATOM     15  H   UNL     1      14.855 -13.775  -2.754  1.00  0.00     0.119 HD
ENDBRANCH  12  13
BRANCH  12  16
ATOM     16  C   UNL     1      15.242 -15.412  -5.645  1.00  0.00     0.022 C 
BRANCH  16  17
ATOM     17  C   UNL     1      15.352 -14.623  -6.957  1.00  0.00     0.002 C 
BRANCH  17  18
ATOM     18  C   UNL     1      16.529 -15.014  -7.848  1.00  0.00     0.000 C 
BRANCH  18  19
ATOM     19  C   UNL     1      16.368 -14.595  -9.315  1.00  0.00    -0.000 C 
BRANCH  19  20
ATOM     20  C   UNL     1      17.668 -14.208 -10.026  1.00  0.00    -0.000 C 
BRANCH  20  21
ATOM     21  C   UNL     1      18.104 -12.769  -9.736  1.00  0.00    -0.003 C 
ATOM     22  C   UNL     1      19.402 -12.732  -8.945  1.00  0.00     0.004 C 
ENDBRANCH  20  21
ENDBRANCH  19  20
ENDBRANCH  18  19
ENDBRANCH  17  18
ENDBRANCH  16  17
ENDBRANCH  12  16
ENDBRANCH   9  12
ENDBRANCH   6   9
ENDBRANCH   3   5
ENDBRANCH   2   3
BRANCH   2  23
ATOM     23  N   UNL     1      15.521  -9.141  -1.957  1.00  0.00    -0.332 N 
ATOM     24  C   UNL     1      14.161  -8.943  -1.478  1.00  0.00     0.147 C 
BRANCH  23  25
ATOM     25  C   UNL     1      16.074  -8.014  -2.758  1.00  0.00     0.174 C 
BRANCH  25  26
ATOM     26  C   UNL     1      17.046  -7.122  -1.951  1.00  0.00     0.038 C 
BRANCH  26  27
ATOM     27  C   UNL     1      18.177  -6.426  -2.741  1.00  0.00    -0.015 C 
ATOM     28  C   UNL     1      18.672  -7.268  -3.917  1.00  0.00     0.007 C 
ATOM     29  C   UNL     1      17.817  -5.017  -3.204  1.00  0.00     0.007 C 
ENDBRANCH  26  27
ENDBRANCH  25  26
BRANCH  25  30
ATOM     30  C   UNL     1      14.926  -7.230  -3.435  1.00  0.00     0.243 C 
ATOM     31  O   UNL     1      14.452  -6.211  -2.934  1.00  0.00    -0.273 OA
ATOM     32  N   UNL     1      14.473  -7.747  -4.621  1.00  0.00    -0.342 N 
ATOM     33  H   UNL     1      15.010  -8.510  -5.041  1.00  0.00     0.164 HD
BRANCH  32  34
ATOM     34  C   UNL     1      13.375  -7.152  -5.387  1.00  0.00     0.175 C 
BRANCH  34  35
ATOM     35  C   UNL     1      13.893  -6.109  -6.389  1.00  0.00     0.070 C 
BRANCH  35  36
ATOM     36  C   UNL     1      15.060  -6.614  -7.207  1.00  0.00    -0.045 A 
ATOM     37  C   UNL     1      16.365  -6.527  -6.697  1.00  0.00     0.007 A 
ATOM     38  C   UNL     1      14.863  -7.150  -8.486  1.00  0.00     0.007 A 
ATOM     39  C   UNL     1      17.449  -6.977  -7.450  1.00  0.00     0.046 A 
ATOM     40  C   UNL     1      15.949  -7.600  -9.242  1.00  0.00     0.046 A 
ATOM     41  C   UNL     1      17.233  -7.511  -8.715  1.00  0.00     0.115 A 
BRANCH  41  42
ATOM     42  O   UNL     1      18.321  -7.936  -9.419  1.00  0.00    -0.508 OA
ATOM     43  H   UNL     1      18.363  -7.432 -10.249  1.00  0.00     0.293 HD
ENDBRANCH  41  42
ENDBRANCH  35  36
ENDBRANCH  34  35
BRANCH  34  44
ATOM     44  C   UNL     1      12.607  -8.295  -6.089  1.00  0.00     0.243 C 
ATOM     45  O   UNL     1      11.469  -8.192  -6.540  1.00  0.00    -0.273 OA
ATOM     46  N   UNL     1      13.268  -9.504  -6.053  1.00  0.00    -0.341 N 
ATOM     47  H   UNL     1      14.158  -9.566  -5.564  1.00  0.00     0.164 HD
BRANCH  46  48
ATOM     48  C   UNL     1      12.709 -10.745  -6.593  1.00  0.00     0.196 C 
BRANCH  48  49
ATOM     49  C   UNL     1      13.718 -11.465  -7.504  1.00  0.00     0.072 C 
BRANCH  49  50
ATOM     50  C   UNL     1      13.753 -10.889  -8.901  1.00  0.00    -0.045 A 
ATOM     51  C   UNL     1      14.840 -11.164  -9.743  1.00  0.00     0.007 A 
ATOM     52  C   UNL     1      12.722 -10.063  -9.367  1.00  0.00     0.007 A 
ATOM     53  C   UNL     1      14.890 -10.628 -11.030  1.00  0.00     0.046 A 
ATOM     54  C   UNL     1      12.772  -9.525 -10.655  1.00  0.00     0.046 A 
ATOM     55  C   UNL     1      13.857  -9.814 -11.476  1.00  0.00     0.115 A 
BRANCH  55  56
ATOM     56  O   UNL     1      13.944  -9.308 -12.740  1.00  0.00    -0.508 OA
ATOM     57  H   UNL     1      13.499  -9.921 -13.346  1.00  0.00     0.293 HD
ENDBRANCH  55  56
ENDBRANCH  49  50
ENDBRANCH  48  49
BRANCH  48  58
ATOM     58  C   UNL     1      12.320 -11.666  -5.427  1.00  0.00     0.326 C 
ATOM     59  O   UNL     1      11.800 -11.342  -4.372  1.00  0.00    -0.250 OA
BRANCH  58  60
ATOM     60  O   UNL     1      12.596 -12.974  -5.656  1.00  0.00    -0.480 OA
ATOM     61  H   UNL     1      13.576 -13.011  -5.607  1.00  0.00     0.296 HD
ENDBRANCH  58  60
ENDBRANCH  48  58
ENDBRANCH  46  48
ENDBRANCH  34  44
ENDBRANCH  32  34
ENDBRANCH  25  30
ENDBRANCH  23  25
ENDBRANCH   2  23
TORSDOF 28
ENDMDL
MODEL 43
REMARK VINA RESULT:    -3.893     15.276     19.981
REMARK INTER + INTRA:         -16.214
REMARK INTER:                 -10.580
REMARK INTRA:                  -5.634
REMARK UNBOUND:                -6.517
REMARK SMILES CCCCCCC[C@H](N)[C@H](O)C(=O)N[C@H](C)C(=O)N(C)[C@H](CC(C)C)C(=O)N[C@@H](Cc1ccc(O)cc1)C(=O)N[C@@H](Cc1ccc(O)cc1)C(=O)O
REMARK SMILES IDX 18 1 17 2 15 3 16 4 14 5 12 6 13 7 10 9 11 10 8 12 9 13 7 16
REMARK SMILES IDX 6 17 5 18 4 19 3 20 2 21 1 22 19 23 20 24 21 25 22 26 23 27
REMARK SMILES IDX 24 28 25 29 26 30 27 31 28 32 29 34 30 35 31 36 32 37 37 38
REMARK SMILES IDX 33 39 36 40 34 41 35 42 38 44 39 45 40 46 41 48 42 49 43 50
REMARK SMILES IDX 44 51 49 52 45 53 48 54 46 55 47 56 50 58 51 59 52 60
REMARK H PARENT 14 8 11 11 9 14 9 15 28 33 35 43 40 47 47 57 52 61
ROOT
ATOM      1  O   UNL     1       8.319  -8.998 -13.657  1.00  0.00    -0.272 OA
ATOM      2  C   UNL     1       8.457  -8.752 -12.450  1.00  0.00     0.245 C 
ENDROOT
BRANCH   2   3
ATOM      3  C   UNL     1       7.393  -7.873 -11.746  1.00  0.00     0.168 C 
ATOM      4  C   UNL     1       6.852  -6.812 -12.697  1.00  0.00     0.041 C 
BRANCH   3   5
ATOM      5  N   UNL     1       6.323  -8.613 -11.095  1.00  0.00    -0.342 N 
ATOM      6  C   UNL     1       6.100  -8.526  -9.737  1.00  0.00     0.251 C 
ATOM      7  O   UNL     1       6.798  -7.863  -8.978  1.00  0.00    -0.272 OA
ATOM      8  H   UNL     1       5.699  -9.224 -11.617  1.00  0.00     0.164 HD
BRANCH   6   9
ATOM      9  C   UNL     1       4.834  -9.277  -9.294  1.00  0.00     0.219 C 
BRANCH   9  10
ATOM     10  O   UNL     1       3.820  -9.296 -10.305  1.00  0.00    -0.382 OA
ATOM     11  H   UNL     1       2.992  -9.121  -9.806  1.00  0.00     0.211 HD
ENDBRANCH   9  10
BRANCH   9  12
ATOM     12  C   UNL     1       5.126 -10.711  -8.779  1.00  0.00     0.089 C 
BRANCH  12  13
ATOM     13  N   UNL     1       6.550 -11.021  -9.041  1.00  0.00    -0.325 NA
ATOM     14  H   UNL     1       6.617 -11.625  -9.862  1.00  0.00     0.119 HD
ATOM     15  H   UNL     1       6.914 -11.581  -8.267  1.00  0.00     0.119 HD
ENDBRANCH  12  13
BRANCH  12  16
ATOM     16  C   UNL     1       4.787 -10.980  -7.293  1.00  0.00     0.022 C 
BRANCH  16  17
ATOM     17  C   UNL     1       4.124  -9.871  -6.466  1.00  0.00     0.002 C 
BRANCH  17  18
ATOM     18  C   UNL     1       3.095 -10.355  -5.446  1.00  0.00     0.000 C 
BRANCH  18  19
ATOM     19  C   UNL     1       3.586 -10.307  -3.993  1.00  0.00    -0.000 C 
BRANCH  19  20
ATOM     20  C   UNL     1       4.877  -9.515  -3.768  1.00  0.00    -0.000 C 
BRANCH  20  21
ATOM     21  C   UNL     1       6.044 -10.390  -3.303  1.00  0.00    -0.003 C 
ATOM     22  C   UNL     1       5.663 -11.223  -2.089  1.00  0.00     0.004 C 
ENDBRANCH  20  21
ENDBRANCH  19  20
ENDBRANCH  18  19
ENDBRANCH  17  18
ENDBRANCH  16  17
ENDBRANCH  12  16
ENDBRANCH   9  12
ENDBRANCH   6   9
ENDBRANCH   3   5
ENDBRANCH   2   3
BRANCH   2  23
ATOM     23  N   UNL     1       9.480  -9.359 -11.729  1.00  0.00    -0.332 N 
ATOM     24  C   UNL     1       9.425 -10.713 -11.197  1.00  0.00     0.147 C 
BRANCH  23  25
ATOM     25  C   UNL     1      10.791  -8.673 -11.563  1.00  0.00     0.174 C 
BRANCH  25  26
ATOM     26  C   UNL     1      11.935  -9.365 -12.342  1.00  0.00     0.038 C 
BRANCH  26  27
ATOM     27  C   UNL     1      12.342  -8.735 -13.693  1.00  0.00    -0.015 C 
ATOM     28  C   UNL     1      11.998  -9.631 -14.882  1.00  0.00     0.007 C 
ATOM     29  C   UNL     1      11.785  -7.329 -13.900  1.00  0.00     0.007 C 
ENDBRANCH  26  27
ENDBRANCH  25  26
BRANCH  25  30
ATOM     30  C   UNL     1      11.097  -8.467 -10.062  1.00  0.00     0.243 C 
ATOM     31  O   UNL     1      10.289  -7.938  -9.300  1.00  0.00    -0.273 OA
ATOM     32  N   UNL     1      12.327  -8.905  -9.641  1.00  0.00    -0.342 N 
ATOM     33  H   UNL     1      12.882  -9.458 -10.299  1.00  0.00     0.164 HD
BRANCH  32  34
ATOM     34  C   UNL     1      12.798  -8.767  -8.261  1.00  0.00     0.175 C 
BRANCH  34  35
ATOM     35  C   UNL     1      12.898  -7.290  -7.849  1.00  0.00     0.070 C 
BRANCH  35  36
ATOM     36  C   UNL     1      14.167  -6.979  -7.089  1.00  0.00    -0.045 A 
ATOM     37  C   UNL     1      14.097  -6.512  -5.767  1.00  0.00     0.007 A 
ATOM     38  C   UNL     1      15.422  -7.129  -7.693  1.00  0.00     0.007 A 
ATOM     39  C   UNL     1      15.262  -6.210  -5.062  1.00  0.00     0.046 A 
ATOM     40  C   UNL     1      16.589  -6.825  -6.988  1.00  0.00     0.046 A 
ATOM     41  C   UNL     1      16.498  -6.369  -5.677  1.00  0.00     0.115 A 
BRANCH  41  42
ATOM     42  O   UNL     1      17.612  -6.060  -4.954  1.00  0.00    -0.508 OA
ATOM     43  H   UNL     1      17.342  -5.517  -4.195  1.00  0.00     0.293 HD
ENDBRANCH  41  42
ENDBRANCH  35  36
ENDBRANCH  34  35
BRANCH  34  44
ATOM     44  C   UNL     1      11.836  -9.557  -7.345  1.00  0.00     0.243 C 
ATOM     45  O   UNL     1      11.710 -10.778  -7.361  1.00  0.00    -0.273 OA
ATOM     46  N   UNL     1      11.018  -8.751  -6.582  1.00  0.00    -0.341 N 
ATOM     47  H   UNL     1      11.079  -7.742  -6.690  1.00  0.00     0.164 HD
BRANCH  46  48
ATOM     48  C   UNL     1       9.980  -9.271  -5.689  1.00  0.00     0.196 C 
BRANCH  48  49
ATOM     49  C   UNL     1       9.782  -8.357  -4.469  1.00  0.00     0.072 C 
BRANCH  49  50
ATOM     50  C   UNL     1       9.548  -9.133  -3.192  1.00  0.00    -0.045 A 
ATOM     51  C   UNL     1       9.860 -10.499  -3.138  1.00  0.00     0.007 A 
ATOM     52  C   UNL     1       9.002  -8.513  -2.061  1.00  0.00     0.007 A 
ATOM     53  C   UNL     1       9.636 -11.229  -1.970  1.00  0.00     0.046 A 
ATOM     54  C   UNL     1       8.776  -9.243  -0.893  1.00  0.00     0.046 A 
ATOM     55  C   UNL     1       9.097 -10.596  -0.857  1.00  0.00     0.115 A 
BRANCH  55  56
ATOM     56  O   UNL     1       8.892 -11.345   0.264  1.00  0.00    -0.508 OA
ATOM     57  H   UNL     1       9.160 -10.821   1.035  1.00  0.00     0.293 HD
ENDBRANCH  55  56
ENDBRANCH  49  50
ENDBRANCH  48  49
BRANCH  48  58
ATOM     58  C   UNL     1       8.662  -9.383  -6.468  1.00  0.00     0.326 C 
ATOM     59  O   UNL     1       7.541  -9.114  -6.067  1.00  0.00    -0.250 OA
BRANCH  58  60
ATOM     60  O   UNL     1       8.822  -9.822  -7.742  1.00  0.00    -0.480 OA
ATOM     61  H   UNL     1       8.686 -10.792  -7.666  1.00  0.00     0.296 HD
ENDBRANCH  58  60
ENDBRANCH  48  58
ENDBRANCH  46  48
ENDBRANCH  34  44
ENDBRANCH  32  34
ENDBRANCH  25  30
ENDBRANCH  23  25
ENDBRANCH   2  23
TORSDOF 28
ENDMDL
MODEL 44
REMARK VINA RESULT:    -3.884     12.421     16.859
REMARK INTER + INTRA:         -16.190
REMARK INTER:                  -9.222
REMARK INTRA:                  -6.967
REMARK UNBOUND:                -6.517
REMARK SMILES CCCCCCC[C@H](N)[C@H](O)C(=O)N[C@H](C)C(=O)N(C)[C@H](CC(C)C)C(=O)N[C@@H](Cc1ccc(O)cc1)C(=O)N[C@@H](Cc1ccc(O)cc1)C(=O)O
REMARK SMILES IDX 18 1 17 2 15 3 16 4 14 5 12 6 13 7 10 9 11 10 8 12 9 13 7 16
REMARK SMILES IDX 6 17 5 18 4 19 3 20 2 21 1 22 19 23 20 24 21 25 22 26 23 27
REMARK SMILES IDX 24 28 25 29 26 30 27 31 28 32 29 34 30 35 31 36 32 37 37 38
REMARK SMILES IDX 33 39 36 40 34 41 35 42 38 44 39 45 40 46 41 48 42 49 43 50
REMARK SMILES IDX 44 51 49 52 45 53 48 54 46 55 47 56 50 58 51 59 52 60
REMARK H PARENT 14 8 11 11 9 14 9 15 28 33 35 43 40 47 47 57 52 61
ROOT
ATOM      1  O   UNL     1      14.348 -12.648  -0.166  1.00  0.00    -0.272 OA
ATOM      2  C   UNL     1      13.808 -11.881   0.645  1.00  0.00     0.245 C 
ENDROOT
BRANCH   2   3
ATOM      3  C   UNL     1      14.706 -11.101   1.638  1.00  0.00     0.168 C 
ATOM      4  C   UNL     1      15.334 -12.046   2.657  1.00  0.00     0.041 C 
BRANCH   3   5
ATOM      5  N   UNL     1      15.698 -10.238   1.017  1.00  0.00    -0.342 N 
ATOM      6  C   UNL     1      15.756  -8.886   1.285  1.00  0.00     0.251 C 
ATOM      7  O   UNL     1      14.964  -8.308   2.022  1.00  0.00    -0.272 OA
ATOM      8  H   UNL     1      16.386 -10.597   0.360  1.00  0.00     0.164 HD
BRANCH   6   9
ATOM      9  C   UNL     1      16.967  -8.202   0.630  1.00  0.00     0.219 C 
BRANCH   9  10
ATOM     10  O   UNL     1      18.046  -9.111   0.380  1.00  0.00    -0.382 OA
ATOM     11  H   UNL     1      18.483  -8.737  -0.416  1.00  0.00     0.211 HD
ENDBRANCH   9  10
BRANCH   9  12
ATOM     12  C   UNL     1      16.601  -7.414  -0.654  1.00  0.00     0.089 C 
BRANCH  12  13
ATOM     13  N   UNL     1      15.267  -7.864  -1.115  1.00  0.00    -0.325 NA
ATOM     14  H   UNL     1      14.648  -7.960  -0.307  1.00  0.00     0.119 HD
ATOM     15  H   UNL     1      15.351  -8.808  -1.500  1.00  0.00     0.119 HD
ENDBRANCH  12  13
BRANCH  12  16
ATOM     16  C   UNL     1      16.629  -5.872  -0.535  1.00  0.00     0.022 C 
BRANCH  16  17
ATOM     17  C   UNL     1      15.447  -5.152   0.129  1.00  0.00     0.002 C 
BRANCH  17  18
ATOM     18  C   UNL     1      14.684  -4.192  -0.780  1.00  0.00     0.000 C 
BRANCH  18  19
ATOM     19  C   UNL     1      14.647  -2.745  -0.270  1.00  0.00    -0.000 C 
BRANCH  19  20
ATOM     20  C   UNL     1      13.256  -2.222   0.099  1.00  0.00    -0.000 C 
BRANCH  20  21
ATOM     21  C   UNL     1      13.103  -1.926   1.593  1.00  0.00    -0.003 C 
ATOM     22  C   UNL     1      14.403  -2.173   2.343  1.00  0.00     0.004 C 
ENDBRANCH  20  21
ENDBRANCH  19  20
ENDBRANCH  18  19
ENDBRANCH  17  18
ENDBRANCH  16  17
ENDBRANCH  12  16
ENDBRANCH   9  12
ENDBRANCH   6   9
ENDBRANCH   3   5
ENDBRANCH   2   3
BRANCH   2  23
ATOM     23  N   UNL     1      12.440 -11.641   0.571  1.00  0.00    -0.332 N 
ATOM     24  C   UNL     1      11.412 -12.599   0.950  1.00  0.00     0.147 C 
BRANCH  23  25
ATOM     25  C   UNL     1      11.933 -10.290   0.203  1.00  0.00     0.174 C 
BRANCH  25  26
ATOM     26  C   UNL     1      10.714  -9.854   1.050  1.00  0.00     0.038 C 
BRANCH  26  27
ATOM     27  C   UNL     1      10.980  -8.847   2.191  1.00  0.00    -0.015 C 
ATOM     28  C   UNL     1       9.697  -8.194   2.704  1.00  0.00     0.007 C 
ATOM     29  C   UNL     1      11.781  -9.438   3.348  1.00  0.00     0.007 C 
ENDBRANCH  26  27
ENDBRANCH  25  26
BRANCH  25  30
ATOM     30  C   UNL     1      11.692 -10.210  -1.322  1.00  0.00     0.243 C 
ATOM     31  O   UNL     1      10.606 -10.495  -1.824  1.00  0.00    -0.273 OA
ATOM     32  N   UNL     1      12.767  -9.807  -2.072  1.00  0.00    -0.342 N 
ATOM     33  H   UNL     1      13.587  -9.453  -1.573  1.00  0.00     0.164 HD
BRANCH  32  34
ATOM     34  C   UNL     1      12.729  -9.699  -3.533  1.00  0.00     0.175 C 
BRANCH  34  35
ATOM     35  C   UNL     1      12.432  -8.259  -3.979  1.00  0.00     0.070 C 
BRANCH  35  36
ATOM     36  C   UNL     1      12.082  -8.163  -5.447  1.00  0.00    -0.045 A 
ATOM     37  C   UNL     1      10.880  -8.711  -5.920  1.00  0.00     0.007 A 
ATOM     38  C   UNL     1      12.955  -7.550  -6.356  1.00  0.00     0.007 A 
ATOM     39  C   UNL     1      10.554  -8.639  -7.275  1.00  0.00     0.046 A 
ATOM     40  C   UNL     1      12.631  -7.479  -7.713  1.00  0.00     0.046 A 
ATOM     41  C   UNL     1      11.431  -8.023  -8.160  1.00  0.00     0.115 A 
BRANCH  41  42
ATOM     42  O   UNL     1      11.078  -7.977  -9.476  1.00  0.00    -0.508 OA
ATOM     43  H   UNL     1      11.888  -8.009 -10.010  1.00  0.00     0.293 HD
ENDBRANCH  41  42
ENDBRANCH  35  36
ENDBRANCH  34  35
BRANCH  34  44
ATOM     44  C   UNL     1      14.080 -10.207  -4.085  1.00  0.00     0.243 C 
ATOM     45  O   UNL     1      14.201 -11.145  -4.868  1.00  0.00    -0.273 OA
ATOM     46  N   UNL     1      15.173  -9.590  -3.514  1.00  0.00    -0.341 N 
ATOM     47  H   UNL     1      15.025  -8.899  -2.783  1.00  0.00     0.164 HD
BRANCH  46  48
ATOM     48  C   UNL     1      16.558  -9.951  -3.828  1.00  0.00     0.196 C 
BRANCH  48  49
ATOM     49  C   UNL     1      17.342  -8.744  -4.370  1.00  0.00     0.072 C 
BRANCH  49  50
ATOM     50  C   UNL     1      16.951  -8.384  -5.786  1.00  0.00    -0.045 A 
ATOM     51  C   UNL     1      16.817  -7.037  -6.153  1.00  0.00     0.007 A 
ATOM     52  C   UNL     1      16.699  -9.379  -6.739  1.00  0.00     0.007 A 
ATOM     53  C   UNL     1      16.444  -6.693  -7.452  1.00  0.00     0.046 A 
ATOM     54  C   UNL     1      16.324  -9.035  -8.040  1.00  0.00     0.046 A 
ATOM     55  C   UNL     1      16.201  -7.694  -8.385  1.00  0.00     0.115 A 
BRANCH  55  56
ATOM     56  O   UNL     1      15.837  -7.316  -9.644  1.00  0.00    -0.508 OA
ATOM     57  H   UNL     1      15.622  -8.113 -10.153  1.00  0.00     0.293 HD
ENDBRANCH  55  56
ENDBRANCH  49  50
ENDBRANCH  48  49
BRANCH  48  58
ATOM     58  C   UNL     1      17.237 -10.478  -2.557  1.00  0.00     0.326 C 
ATOM     59  O   UNL     1      18.433 -10.512  -2.318  1.00  0.00    -0.250 OA
BRANCH  58  60
ATOM     60  O   UNL     1      16.362 -10.931  -1.624  1.00  0.00    -0.480 OA
ATOM     61  H   UNL     1      16.053 -10.109  -1.186  1.00  0.00     0.296 HD
ENDBRANCH  58  60
ENDBRANCH  48  58
ENDBRANCH  46  48
ENDBRANCH  34  44
ENDBRANCH  32  34
ENDBRANCH  25  30
ENDBRANCH  23  25
ENDBRANCH   2  23
TORSDOF 28
ENDMDL
MODEL 45
REMARK VINA RESULT:    -3.867      5.884     11.087
REMARK INTER + INTRA:         -16.148
REMARK INTER:                 -12.209
REMARK INTRA:                  -3.939
REMARK UNBOUND:                -6.517
REMARK SMILES CCCCCCC[C@H](N)[C@H](O)C(=O)N[C@H](C)C(=O)N(C)[C@H](CC(C)C)C(=O)N[C@@H](Cc1ccc(O)cc1)C(=O)N[C@@H](Cc1ccc(O)cc1)C(=O)O
REMARK SMILES IDX 18 1 17 2 15 3 16 4 14 5 12 6 13 7 10 9 11 10 8 12 9 13 7 16
REMARK SMILES IDX 6 17 5 18 4 19 3 20 2 21 1 22 19 23 20 24 21 25 22 26 23 27
REMARK SMILES IDX 24 28 25 29 26 30 27 31 28 32 29 34 30 35 31 36 32 37 37 38
REMARK SMILES IDX 33 39 36 40 34 41 35 42 38 44 39 45 40 46 41 48 42 49 43 50
REMARK SMILES IDX 44 51 49 52 45 53 48 54 46 55 47 56 50 58 51 59 52 60
REMARK H PARENT 14 8 11 11 9 14 9 15 28 33 35 43 40 47 47 57 52 61
ROOT
ATOM      1  O   UNL     1       8.590   4.488   4.472  1.00  0.00    -0.272 OA
ATOM      2  C   UNL     1       8.155   5.592   4.829  1.00  0.00     0.245 C 
ENDROOT
BRANCH   2   3
ATOM      3  C   UNL     1       6.665   5.924   4.563  1.00  0.00     0.168 C 
ATOM      4  C   UNL     1       5.834   5.731   5.826  1.00  0.00     0.041 C 
BRANCH   3   5
ATOM      5  N   UNL     1       6.428   7.221   3.950  1.00  0.00    -0.342 N 
ATOM      6  C   UNL     1       6.236   8.359   4.705  1.00  0.00     0.251 C 
ATOM      7  O   UNL     1       6.209   8.360   5.931  1.00  0.00    -0.272 OA
ATOM      8  H   UNL     1       6.393   7.339   2.940  1.00  0.00     0.164 HD
BRANCH   6   9
ATOM      9  C   UNL     1       6.147   9.632   3.849  1.00  0.00     0.219 C 
BRANCH   9  10
ATOM     10  O   UNL     1       7.225   9.746   2.912  1.00  0.00    -0.382 OA
ATOM     11  H   UNL     1       7.957  10.124   3.448  1.00  0.00     0.211 HD
ENDBRANCH   9  10
BRANCH   9  12
ATOM     12  C   UNL     1       4.779   9.792   3.135  1.00  0.00     0.089 C 
BRANCH  12  13
ATOM     13  N   UNL     1       4.629   8.688   2.159  1.00  0.00    -0.325 NA
ATOM     14  H   UNL     1       4.044   7.957   2.567  1.00  0.00     0.119 HD
ATOM     15  H   UNL     1       5.542   8.250   2.013  1.00  0.00     0.119 HD
ENDBRANCH  12  13
BRANCH  12  16
ATOM     16  C   UNL     1       3.537   9.859   4.056  1.00  0.00     0.022 C 
BRANCH  16  17
ATOM     17  C   UNL     1       3.302  11.117   4.903  1.00  0.00     0.002 C 
BRANCH  17  18
ATOM     18  C   UNL     1       1.837  11.511   5.079  1.00  0.00     0.000 C 
BRANCH  18  19
ATOM     19  C   UNL     1       1.004  11.409   3.794  1.00  0.00    -0.000 C 
BRANCH  19  20
ATOM     20  C   UNL     1      -0.056  10.303   3.792  1.00  0.00    -0.000 C 
BRANCH  20  21
ATOM     21  C   UNL     1      -0.065   9.480   5.083  1.00  0.00    -0.003 C 
ATOM     22  C   UNL     1       0.493   8.084   4.855  1.00  0.00     0.004 C 
ENDBRANCH  20  21
ENDBRANCH  19  20
ENDBRANCH  18  19
ENDBRANCH  17  18
ENDBRANCH  16  17
ENDBRANCH  12  16
ENDBRANCH   9  12
ENDBRANCH   6   9
ENDBRANCH   3   5
ENDBRANCH   2   3
BRANCH   2  23
ATOM     23  N   UNL     1       8.964   6.455   5.561  1.00  0.00    -0.332 N 
ATOM     24  C   UNL     1       9.071   6.456   7.012  1.00  0.00     0.147 C 
BRANCH  23  25
ATOM     25  C   UNL     1       9.900   7.380   4.863  1.00  0.00     0.174 C 
BRANCH  25  26
ATOM     26  C   UNL     1       9.691   8.860   5.261  1.00  0.00     0.038 C 
BRANCH  26  27
ATOM     27  C   UNL     1      10.910   9.800   5.123  1.00  0.00    -0.015 C 
ATOM     28  C   UNL     1      12.229   9.035   5.022  1.00  0.00     0.007 C 
ATOM     29  C   UNL     1      10.779  10.800   3.978  1.00  0.00     0.007 C 
ENDBRANCH  26  27
ENDBRANCH  25  26
BRANCH  25  30
ATOM     30  C   UNL     1       9.853   7.133   3.338  1.00  0.00     0.243 C 
ATOM     31  O   UNL     1       8.975   7.620   2.627  1.00  0.00    -0.273 OA
ATOM     32  N   UNL     1      10.848   6.335   2.835  1.00  0.00    -0.342 N 
ATOM     33  H   UNL     1      11.617   6.086   3.462  1.00  0.00     0.164 HD
BRANCH  32  34
ATOM     34  C   UNL     1      10.946   5.972   1.419  1.00  0.00     0.175 C 
BRANCH  34  35
ATOM     35  C   UNL     1      10.663   7.179   0.512  1.00  0.00     0.070 C 
BRANCH  35  36
ATOM     36  C   UNL     1      11.883   8.046   0.295  1.00  0.00    -0.045 A 
ATOM     37  C   UNL     1      12.255   8.989   1.266  1.00  0.00     0.007 A 
ATOM     38  C   UNL     1      12.642   7.940  -0.878  1.00  0.00     0.007 A 
ATOM     39  C   UNL     1      13.370   9.803   1.070  1.00  0.00     0.046 A 
ATOM     40  C   UNL     1      13.758   8.756  -1.076  1.00  0.00     0.046 A 
ATOM     41  C   UNL     1      14.113   9.680  -0.098  1.00  0.00     0.115 A 
BRANCH  41  42
ATOM     42  O   UNL     1      15.194  10.497  -0.253  1.00  0.00    -0.508 OA
ATOM     43  H   UNL     1      15.291  10.698  -1.199  1.00  0.00     0.293 HD
ENDBRANCH  41  42
ENDBRANCH  35  36
ENDBRANCH  34  35
BRANCH  34  44
ATOM     44  C   UNL     1      12.352   5.381   1.172  1.00  0.00     0.243 C 
ATOM     45  O   UNL     1      12.615   4.553   0.304  1.00  0.00    -0.273 OA
ATOM     46  N   UNL     1      13.284   5.771   2.111  1.00  0.00    -0.341 N 
ATOM     47  H   UNL     1      12.989   6.367   2.881  1.00  0.00     0.164 HD
BRANCH  46  48
ATOM     48  C   UNL     1      14.666   5.287   2.124  1.00  0.00     0.196 C 
BRANCH  48  49
ATOM     49  C   UNL     1      15.667   6.452   2.046  1.00  0.00     0.072 C 
BRANCH  49  50
ATOM     50  C   UNL     1      16.213   6.657   0.651  1.00  0.00    -0.045 A 
ATOM     51  C   UNL     1      15.814   5.805  -0.388  1.00  0.00     0.007 A 
ATOM     52  C   UNL     1      17.134   7.678   0.381  1.00  0.00     0.007 A 
ATOM     53  C   UNL     1      16.321   5.977  -1.676  1.00  0.00     0.046 A 
ATOM     54  C   UNL     1      17.642   7.849  -0.909  1.00  0.00     0.046 A 
ATOM     55  C   UNL     1      17.230   6.997  -1.927  1.00  0.00     0.115 A 
BRANCH  55  56
ATOM     56  O   UNL     1      17.703   7.130  -3.199  1.00  0.00    -0.508 OA
ATOM     57  H   UNL     1      18.299   6.387  -3.383  1.00  0.00     0.293 HD
ENDBRANCH  55  56
ENDBRANCH  49  50
ENDBRANCH  48  49
BRANCH  48  58
ATOM     58  C   UNL     1      14.903   4.489   3.413  1.00  0.00     0.326 C 
ATOM     59  O   UNL     1      15.055   3.283   3.519  1.00  0.00    -0.250 OA
BRANCH  58  60
ATOM     60  O   UNL     1      14.954   5.262   4.527  1.00  0.00    -0.480 OA
ATOM     61  H   UNL     1      14.906   4.609   5.258  1.00  0.00     0.296 HD
ENDBRANCH  58  60
ENDBRANCH  48  58
ENDBRANCH  46  48
ENDBRANCH  34  44
ENDBRANCH  32  34
ENDBRANCH  25  30
ENDBRANCH  23  25
ENDBRANCH   2  23
TORSDOF 28
ENDMDL
MODEL 46
REMARK VINA RESULT:    -3.846     11.042     16.407
REMARK INTER + INTRA:         -16.096
REMARK INTER:                 -10.919
REMARK INTRA:                  -5.177
REMARK UNBOUND:                -6.517
REMARK SMILES CCCCCCC[C@H](N)[C@H](O)C(=O)N[C@H](C)C(=O)N(C)[C@H](CC(C)C)C(=O)N[C@@H](Cc1ccc(O)cc1)C(=O)N[C@@H](Cc1ccc(O)cc1)C(=O)O
REMARK SMILES IDX 18 1 17 2 15 3 16 4 14 5 12 6 13 7 10 9 11 10 8 12 9 13 7 16
REMARK SMILES IDX 6 17 5 18 4 19 3 20 2 21 1 22 19 23 20 24 21 25 22 26 23 27
REMARK SMILES IDX 24 28 25 29 26 30 27 31 28 32 29 34 30 35 31 36 32 37 37 38
REMARK SMILES IDX 33 39 36 40 34 41 35 42 38 44 39 45 40 46 41 48 42 49 43 50
REMARK SMILES IDX 44 51 49 52 45 53 48 54 46 55 47 56 50 58 51 59 52 60
REMARK H PARENT 14 8 11 11 9 14 9 15 28 33 35 43 40 47 47 57 52 61
ROOT
ATOM      1  O   UNL     1      15.357 -10.963  -0.016  1.00  0.00    -0.272 OA
ATOM      2  C   UNL     1      14.462 -10.168   0.304  1.00  0.00     0.245 C 
ENDROOT
BRANCH   2   3
ATOM      3  C   UNL     1      13.030 -10.405  -0.238  1.00  0.00     0.168 C 
ATOM      4  C   UNL     1      12.321 -11.492   0.563  1.00  0.00     0.041 C 
BRANCH   3   5
ATOM      5  N   UNL     1      12.216  -9.206  -0.361  1.00  0.00    -0.342 N 
ATOM      6  C   UNL     1      12.159  -8.483  -1.534  1.00  0.00     0.251 C 
ATOM      7  O   UNL     1      12.809  -8.765  -2.535  1.00  0.00    -0.272 OA
ATOM      8  H   UNL     1      11.659  -8.854   0.414  1.00  0.00     0.164 HD
BRANCH   6   9
ATOM      9  C   UNL     1      11.130  -7.342  -1.479  1.00  0.00     0.219 C 
BRANCH   9  10
ATOM     10  O   UNL     1      11.672  -6.088  -1.910  1.00  0.00    -0.382 OA
ATOM     11  H   UNL     1      12.500  -6.003  -1.388  1.00  0.00     0.211 HD
ENDBRANCH   9  10
BRANCH   9  12
ATOM     12  C   UNL     1       9.819  -7.667  -2.243  1.00  0.00     0.089 C 
BRANCH  12  13
ATOM     13  N   UNL     1      10.163  -8.466  -3.442  1.00  0.00    -0.325 NA
ATOM     14  H   UNL     1      10.111  -9.459  -3.210  1.00  0.00     0.119 HD
ATOM     15  H   UNL     1      11.143  -8.299  -3.682  1.00  0.00     0.119 HD
ENDBRANCH  12  13
BRANCH  12  16
ATOM     16  C   UNL     1       8.717  -8.382  -1.425  1.00  0.00     0.022 C 
BRANCH  16  17
ATOM     17  C   UNL     1       8.678  -8.196   0.098  1.00  0.00     0.002 C 
BRANCH  17  18
ATOM     18  C   UNL     1       7.850  -7.007   0.581  1.00  0.00     0.000 C 
BRANCH  18  19
ATOM     19  C   UNL     1       6.548  -7.400   1.291  1.00  0.00    -0.000 C 
BRANCH  19  20
ATOM     20  C   UNL     1       5.274  -7.220   0.461  1.00  0.00    -0.000 C 
BRANCH  20  21
ATOM     21  C   UNL     1       4.658  -8.548   0.012  1.00  0.00    -0.003 C 
ATOM     22  C   UNL     1       5.059  -8.891  -1.414  1.00  0.00     0.004 C 
ENDBRANCH  20  21
ENDBRANCH  19  20
ENDBRANCH  18  19
ENDBRANCH  17  18
ENDBRANCH  16  17
ENDBRANCH  12  16
ENDBRANCH   9  12
ENDBRANCH   6   9
ENDBRANCH   3   5
ENDBRANCH   2   3
BRANCH   2  23
ATOM     23  N   UNL     1      14.723  -9.161   1.228  1.00  0.00    -0.332 N 
ATOM     24  C   UNL     1      14.231  -9.149   2.598  1.00  0.00     0.147 C 
BRANCH  23  25
ATOM     25  C   UNL     1      15.664  -8.058   0.891  1.00  0.00     0.174 C 
BRANCH  25  26
ATOM     26  C   UNL     1      16.491  -7.579   2.107  1.00  0.00     0.038 C 
BRANCH  26  27
ATOM     27  C   UNL     1      16.334  -6.098   2.520  1.00  0.00    -0.015 C 
ATOM     28  C   UNL     1      15.994  -5.938   4.001  1.00  0.00     0.007 C 
ATOM     29  C   UNL     1      17.536  -5.233   2.148  1.00  0.00     0.007 C 
ENDBRANCH  26  27
ENDBRANCH  25  26
BRANCH  25  30
ATOM     30  C   UNL     1      14.911  -6.921   0.163  1.00  0.00     0.243 C 
ATOM     31  O   UNL     1      13.792  -6.553   0.516  1.00  0.00    -0.273 OA
ATOM     32  N   UNL     1      15.571  -6.357  -0.899  1.00  0.00    -0.342 N 
ATOM     33  H   UNL     1      16.550  -6.618  -1.041  1.00  0.00     0.164 HD
BRANCH  32  34
ATOM     34  C   UNL     1      14.999  -5.287  -1.721  1.00  0.00     0.175 C 
BRANCH  34  35
ATOM     35  C   UNL     1      15.827  -3.997  -1.611  1.00  0.00     0.070 C 
BRANCH  35  36
ATOM     36  C   UNL     1      15.289  -3.044  -0.568  1.00  0.00    -0.045 A 
ATOM     37  C   UNL     1      13.922  -3.050  -0.249  1.00  0.00     0.007 A 
ATOM     38  C   UNL     1      16.134  -2.130   0.075  1.00  0.00     0.007 A 
ATOM     39  C   UNL     1      13.414  -2.165   0.702  1.00  0.00     0.046 A 
ATOM     40  C   UNL     1      15.626  -1.243   1.027  1.00  0.00     0.046 A 
ATOM     41  C   UNL     1      14.270  -1.270   1.333  1.00  0.00     0.115 A 
BRANCH  41  42
ATOM     42  O   UNL     1      13.733  -0.420   2.254  1.00  0.00    -0.508 OA
ATOM     43  H   UNL     1      14.201   0.430   2.194  1.00  0.00     0.293 HD
ENDBRANCH  41  42
ENDBRANCH  35  36
ENDBRANCH  34  35
BRANCH  34  44
ATOM     44  C   UNL     1      14.913  -5.796  -3.177  1.00  0.00     0.243 C 
ATOM     45  O   UNL     1      13.874  -5.865  -3.827  1.00  0.00    -0.273 OA
ATOM     46  N   UNL     1      16.105  -6.298  -3.654  1.00  0.00    -0.341 N 
ATOM     47  H   UNL     1      16.912  -6.327  -3.036  1.00  0.00     0.164 HD
BRANCH  46  48
ATOM     48  C   UNL     1      16.252  -6.898  -4.983  1.00  0.00     0.196 C 
BRANCH  48  49
ATOM     49  C   UNL     1      17.642  -6.611  -5.576  1.00  0.00     0.072 C 
BRANCH  49  50
ATOM     50  C   UNL     1      17.695  -6.840  -7.069  1.00  0.00    -0.045 A 
ATOM     51  C   UNL     1      18.935  -6.979  -7.711  1.00  0.00     0.007 A 
ATOM     52  C   UNL     1      16.522  -6.896  -7.833  1.00  0.00     0.007 A 
ATOM     53  C   UNL     1      18.997  -7.177  -9.090  1.00  0.00     0.046 A 
ATOM     54  C   UNL     1      16.585  -7.093  -9.214  1.00  0.00     0.046 A 
ATOM     55  C   UNL     1      17.823  -7.233  -9.831  1.00  0.00     0.115 A 
BRANCH  55  56
ATOM     56  O   UNL     1      17.928  -7.427 -11.177  1.00  0.00    -0.508 OA
ATOM     57  H   UNL     1      17.791  -6.574 -11.620  1.00  0.00     0.293 HD
ENDBRANCH  55  56
ENDBRANCH  49  50
ENDBRANCH  48  49
BRANCH  48  58
ATOM     58  C   UNL     1      16.043  -8.415  -4.871  1.00  0.00     0.326 C 
ATOM     59  O   UNL     1      16.899  -9.284  -4.912  1.00  0.00    -0.250 OA
BRANCH  58  60
ATOM     60  O   UNL     1      14.746  -8.771  -4.697  1.00  0.00    -0.480 OA
ATOM     61  H   UNL     1      14.372  -8.714  -5.603  1.00  0.00     0.296 HD
ENDBRANCH  58  60
ENDBRANCH  48  58
ENDBRANCH  46  48
ENDBRANCH  34  44
ENDBRANCH  32  34
ENDBRANCH  25  30
ENDBRANCH  23  25
ENDBRANCH   2  23
TORSDOF 28
ENDMDL
MODEL 47
REMARK VINA RESULT:    -3.837     15.189     19.711
REMARK INTER + INTRA:         -16.074
REMARK INTER:                 -10.186
REMARK INTRA:                  -5.888
REMARK UNBOUND:                -6.517
REMARK SMILES CCCCCCC[C@H](N)[C@H](O)C(=O)N[C@H](C)C(=O)N(C)[C@H](CC(C)C)C(=O)N[C@@H](Cc1ccc(O)cc1)C(=O)N[C@@H](Cc1ccc(O)cc1)C(=O)O
REMARK SMILES IDX 18 1 17 2 15 3 16 4 14 5 12 6 13 7 10 9 11 10 8 12 9 13 7 16
REMARK SMILES IDX 6 17 5 18 4 19 3 20 2 21 1 22 19 23 20 24 21 25 22 26 23 27
REMARK SMILES IDX 24 28 25 29 26 30 27 31 28 32 29 34 30 35 31 36 32 37 37 38
REMARK SMILES IDX 33 39 36 40 34 41 35 42 38 44 39 45 40 46 41 48 42 49 43 50
REMARK SMILES IDX 44 51 49 52 45 53 48 54 46 55 47 56 50 58 51 59 52 60
REMARK H PARENT 14 8 11 11 9 14 9 15 28 33 35 43 40 47 47 57 52 61
ROOT
ATOM      1  O   UNL     1      11.665 -11.673  -2.341  1.00  0.00    -0.272 OA
ATOM      2  C   UNL     1      12.041 -11.405  -3.492  1.00  0.00     0.245 C 
ENDROOT
BRANCH   2   3
ATOM      3  C   UNL     1      11.362 -12.130  -4.681  1.00  0.00     0.168 C 
ATOM      4  C   UNL     1      11.452 -13.643  -4.516  1.00  0.00     0.041 C 
BRANCH   3   5
ATOM      5  N   UNL     1      10.003 -11.696  -4.966  1.00  0.00    -0.342 N 
ATOM      6  C   UNL     1       9.638 -11.213  -6.205  1.00  0.00     0.251 C 
ATOM      7  O   UNL     1      10.424 -11.075  -7.136  1.00  0.00    -0.272 OA
ATOM      8  H   UNL     1       9.270 -11.731  -4.261  1.00  0.00     0.164 HD
BRANCH   6   9
ATOM      9  C   UNL     1       8.127 -10.951  -6.318  1.00  0.00     0.219 C 
BRANCH   9  10
ATOM     10  O   UNL     1       7.364 -11.693  -5.360  1.00  0.00    -0.382 OA
ATOM     11  H   UNL     1       6.591 -11.113  -5.181  1.00  0.00     0.211 HD
ENDBRANCH   9  10
BRANCH   9  12
ATOM     12  C   UNL     1       7.765  -9.443  -6.263  1.00  0.00     0.089 C 
BRANCH  12  13
ATOM     13  N   UNL     1       9.007  -8.673  -6.024  1.00  0.00    -0.325 NA
ATOM     14  H   UNL     1       9.758  -9.060  -6.599  1.00  0.00     0.119 HD
ATOM     15  H   UNL     1       9.308  -8.821  -5.058  1.00  0.00     0.119 HD
ENDBRANCH  12  13
BRANCH  12  16
ATOM     16  C   UNL     1       7.019  -8.880  -7.496  1.00  0.00     0.022 C 
BRANCH  16  17
ATOM     17  C   UNL     1       5.509  -8.620  -7.401  1.00  0.00     0.002 C 
BRANCH  17  18
ATOM     18  C   UNL     1       4.647  -9.874  -7.272  1.00  0.00     0.000 C 
BRANCH  18  19
ATOM     19  C   UNL     1       4.045 -10.077  -5.875  1.00  0.00    -0.000 C 
BRANCH  19  20
ATOM     20  C   UNL     1       4.388  -8.988  -4.855  1.00  0.00    -0.000 C 
BRANCH  20  21
ATOM     21  C   UNL     1       5.047  -9.540  -3.587  1.00  0.00    -0.003 C 
ATOM     22  C   UNL     1       4.457 -10.886  -3.197  1.00  0.00     0.004 C 
ENDBRANCH  20  21
ENDBRANCH  19  20
ENDBRANCH  18  19
ENDBRANCH  17  18
ENDBRANCH  16  17
ENDBRANCH  12  16
ENDBRANCH   9  12
ENDBRANCH   6   9
ENDBRANCH   3   5
ENDBRANCH   2   3
BRANCH   2  23
ATOM     23  N   UNL     1      12.964 -10.386  -3.703  1.00  0.00    -0.332 N 
ATOM     24  C   UNL     1      13.639  -9.651  -2.643  1.00  0.00     0.147 C 
BRANCH  23  25
ATOM     25  C   UNL     1      13.426 -10.064  -5.081  1.00  0.00     0.174 C 
BRANCH  25  26
ATOM     26  C   UNL     1      14.943  -9.770  -5.155  1.00  0.00     0.038 C 
BRANCH  26  27
ATOM     27  C   UNL     1      15.824 -10.812  -5.880  1.00  0.00    -0.015 C 
ATOM     28  C   UNL     1      15.481 -12.247  -5.480  1.00  0.00     0.007 C 
ATOM     29  C   UNL     1      15.816 -10.661  -7.399  1.00  0.00     0.007 C 
ENDBRANCH  26  27
ENDBRANCH  25  26
BRANCH  25  30
ATOM     30  C   UNL     1      12.546  -8.948  -5.690  1.00  0.00     0.243 C 
ATOM     31  O   UNL     1      11.733  -8.320  -5.014  1.00  0.00    -0.273 OA
ATOM     32  N   UNL     1      12.728  -8.713  -7.028  1.00  0.00    -0.342 N 
ATOM     33  H   UNL     1      13.517  -9.176  -7.487  1.00  0.00     0.164 HD
BRANCH  32  34
ATOM     34  C   UNL     1      11.963  -7.713  -7.778  1.00  0.00     0.175 C 
BRANCH  34  35
ATOM     35  C   UNL     1      12.769  -6.419  -7.967  1.00  0.00     0.070 C 
BRANCH  35  36
ATOM     36  C   UNL     1      14.232  -6.586  -7.622  1.00  0.00    -0.045 A 
ATOM     37  C   UNL     1      15.131  -7.064  -8.588  1.00  0.00     0.007 A 
ATOM     38  C   UNL     1      14.706  -6.291  -6.337  1.00  0.00     0.007 A 
ATOM     39  C   UNL     1      16.480  -7.234  -8.276  1.00  0.00     0.046 A 
ATOM     40  C   UNL     1      16.057  -6.463  -6.023  1.00  0.00     0.046 A 
ATOM     41  C   UNL     1      16.932  -6.932  -6.997  1.00  0.00     0.115 A 
BRANCH  41  42
ATOM     42  O   UNL     1      18.257  -7.115  -6.732  1.00  0.00    -0.508 OA
ATOM     43  H   UNL     1      18.664  -7.548  -7.500  1.00  0.00     0.293 HD
ENDBRANCH  41  42
ENDBRANCH  35  36
ENDBRANCH  34  35
BRANCH  34  44
ATOM     44  C   UNL     1      11.552  -8.340  -9.130  1.00  0.00     0.243 C 
ATOM     45  O   UNL     1      12.188  -8.219 -10.172  1.00  0.00    -0.273 OA
ATOM     46  N   UNL     1      10.316  -8.951  -9.098  1.00  0.00    -0.341 N 
ATOM     47  H   UNL     1       9.773  -8.923  -8.238  1.00  0.00     0.164 HD
BRANCH  46  48
ATOM     48  C   UNL     1       9.686  -9.556 -10.273  1.00  0.00     0.196 C 
BRANCH  48  49
ATOM     49  C   UNL     1       9.652  -8.575 -11.457  1.00  0.00     0.072 C 
BRANCH  49  50
ATOM     50  C   UNL     1       8.249  -8.132 -11.806  1.00  0.00    -0.045 A 
ATOM     51  C   UNL     1       7.983  -7.585 -13.070  1.00  0.00     0.007 A 
ATOM     52  C   UNL     1       7.207  -8.238 -10.876  1.00  0.00     0.007 A 
ATOM     53  C   UNL     1       6.695  -7.161 -13.399  1.00  0.00     0.046 A 
ATOM     54  C   UNL     1       5.918  -7.812 -11.205  1.00  0.00     0.046 A 
ATOM     55  C   UNL     1       5.673  -7.277 -12.465  1.00  0.00     0.115 A 
BRANCH  55  56
ATOM     56  O   UNL     1       4.430  -6.849 -12.824  1.00  0.00    -0.508 OA
ATOM     57  H   UNL     1       4.373  -6.855 -13.793  1.00  0.00     0.293 HD
ENDBRANCH  55  56
ENDBRANCH  49  50
ENDBRANCH  48  49
BRANCH  48  58
ATOM     58  C   UNL     1      10.471 -10.814 -10.669  1.00  0.00     0.326 C 
ATOM     59  O   UNL     1      11.151 -10.976 -11.669  1.00  0.00    -0.250 OA
BRANCH  58  60
ATOM     60  O   UNL     1      10.372 -11.820  -9.764  1.00  0.00    -0.480 OA
ATOM     61  H   UNL     1      10.210 -11.349  -8.919  1.00  0.00     0.296 HD
ENDBRANCH  58  60
ENDBRANCH  48  58
ENDBRANCH  46  48
ENDBRANCH  34  44
ENDBRANCH  32  34
ENDBRANCH  25  30
ENDBRANCH  23  25
ENDBRANCH   2  23
TORSDOF 28
ENDMDL
MODEL 48
REMARK VINA RESULT:    -3.805     11.034     15.418
REMARK INTER + INTRA:         -15.993
REMARK INTER:                 -10.679
REMARK INTRA:                  -5.314
REMARK UNBOUND:                -6.517
REMARK SMILES CCCCCCC[C@H](N)[C@H](O)C(=O)N[C@H](C)C(=O)N(C)[C@H](CC(C)C)C(=O)N[C@@H](Cc1ccc(O)cc1)C(=O)N[C@@H](Cc1ccc(O)cc1)C(=O)O
REMARK SMILES IDX 18 1 17 2 15 3 16 4 14 5 12 6 13 7 10 9 11 10 8 12 9 13 7 16
REMARK SMILES IDX 6 17 5 18 4 19 3 20 2 21 1 22 19 23 20 24 21 25 22 26 23 27
REMARK SMILES IDX 24 28 25 29 26 30 27 31 28 32 29 34 30 35 31 36 32 37 37 38
REMARK SMILES IDX 33 39 36 40 34 41 35 42 38 44 39 45 40 46 41 48 42 49 43 50
REMARK SMILES IDX 44 51 49 52 45 53 48 54 46 55 47 56 50 58 51 59 52 60
REMARK H PARENT 14 8 11 11 9 14 9 15 28 33 35 43 40 47 47 57 52 61
ROOT
ATOM      1  O   UNL     1      14.534 -12.127   0.802  1.00  0.00    -0.272 OA
ATOM      2  C   UNL     1      14.783 -10.950   1.101  1.00  0.00     0.245 C 
ENDROOT
BRANCH   2   3
ATOM      3  C   UNL     1      16.226 -10.423   0.901  1.00  0.00     0.168 C 
ATOM      4  C   UNL     1      17.160 -10.981   1.969  1.00  0.00     0.041 C 
BRANCH   3   5
ATOM      5  N   UNL     1      16.763 -10.608  -0.438  1.00  0.00    -0.342 N 
ATOM      6  C   UNL     1      17.807  -9.843  -0.916  1.00  0.00     0.251 C 
ATOM      7  O   UNL     1      18.328  -8.935  -0.277  1.00  0.00    -0.272 OA
ATOM      8  H   UNL     1      16.389 -11.308  -1.075  1.00  0.00     0.164 HD
BRANCH   6   9
ATOM      9  C   UNL     1      18.301 -10.308  -2.295  1.00  0.00     0.219 C 
BRANCH   9  10
ATOM     10  O   UNL     1      18.709 -11.681  -2.303  1.00  0.00    -0.382 OA
ATOM     11  H   UNL     1      19.571 -11.668  -1.831  1.00  0.00     0.211 HD
ENDBRANCH   9  10
BRANCH   9  12
ATOM     12  C   UNL     1      17.283 -10.030  -3.432  1.00  0.00     0.089 C 
BRANCH  12  13
ATOM     13  N   UNL     1      16.146 -10.967  -3.280  1.00  0.00    -0.325 NA
ATOM     14  H   UNL     1      15.413 -10.518  -2.727  1.00  0.00     0.119 HD
ATOM     15  H   UNL     1      16.449 -11.768  -2.721  1.00  0.00     0.119 HD
ENDBRANCH  12  13
BRANCH  12  16
ATOM     16  C   UNL     1      16.763  -8.576  -3.537  1.00  0.00     0.022 C 
BRANCH  16  17
ATOM     17  C   UNL     1      17.775  -7.424  -3.601  1.00  0.00     0.002 C 
BRANCH  17  18
ATOM     18  C   UNL     1      17.810  -6.669  -4.928  1.00  0.00     0.000 C 
BRANCH  18  19
ATOM     19  C   UNL     1      17.130  -7.411  -6.086  1.00  0.00    -0.000 C 
BRANCH  19  20
ATOM     20  C   UNL     1      17.234  -6.721  -7.449  1.00  0.00    -0.000 C 
BRANCH  20  21
ATOM     21  C   UNL     1      16.648  -7.557  -8.590  1.00  0.00    -0.003 C 
ATOM     22  C   UNL     1      17.181  -7.104  -9.941  1.00  0.00     0.004 C 
ENDBRANCH  20  21
ENDBRANCH  19  20
ENDBRANCH  18  19
ENDBRANCH  17  18
ENDBRANCH  16  17
ENDBRANCH  12  16
ENDBRANCH   9  12
ENDBRANCH   6   9
ENDBRANCH   3   5
ENDBRANCH   2   3
BRANCH   2  23
ATOM     23  N   UNL     1      13.754 -10.099   1.491  1.00  0.00    -0.332 N 
ATOM     24  C   UNL     1      13.586  -9.567   2.835  1.00  0.00     0.147 C 
BRANCH  23  25
ATOM     25  C   UNL     1      12.799  -9.564   0.481  1.00  0.00     0.174 C 
BRANCH  25  26
ATOM     26  C   UNL     1      11.755 -10.610   0.026  1.00  0.00     0.038 C 
BRANCH  26  27
ATOM     27  C   UNL     1      10.268 -10.201   0.118  1.00  0.00    -0.015 C 
ATOM     28  C   UNL     1       9.842  -9.863   1.547  1.00  0.00     0.007 C 
ATOM     29  C   UNL     1       9.889  -9.072  -0.837  1.00  0.00     0.007 C 
ENDBRANCH  26  27
ENDBRANCH  25  26
BRANCH  25  30
ATOM     30  C   UNL     1      13.572  -8.908  -0.686  1.00  0.00     0.243 C 
ATOM     31  O   UNL     1      14.006  -9.567  -1.630  1.00  0.00    -0.273 OA
ATOM     32  N   UNL     1      13.745  -7.551  -0.595  1.00  0.00    -0.342 N 
ATOM     33  H   UNL     1      13.235  -7.057   0.142  1.00  0.00     0.164 HD
BRANCH  32  34
ATOM     34  C   UNL     1      14.475  -6.767  -1.595  1.00  0.00     0.175 C 
BRANCH  34  35
ATOM     35  C   UNL     1      13.520  -5.904  -2.434  1.00  0.00     0.070 C 
BRANCH  35  36
ATOM     36  C   UNL     1      13.490  -6.312  -3.890  1.00  0.00    -0.045 A 
ATOM     37  C   UNL     1      13.885  -5.401  -4.882  1.00  0.00     0.007 A 
ATOM     38  C   UNL     1      13.049  -7.586  -4.271  1.00  0.00     0.007 A 
ATOM     39  C   UNL     1      13.848  -5.764  -6.229  1.00  0.00     0.046 A 
ATOM     40  C   UNL     1      13.011  -7.949  -5.619  1.00  0.00     0.046 A 
ATOM     41  C   UNL     1      13.412  -7.034  -6.587  1.00  0.00     0.115 A 
BRANCH  41  42
ATOM     42  O   UNL     1      13.388  -7.347  -7.914  1.00  0.00    -0.508 OA
ATOM     43  H   UNL     1      12.490  -7.640  -8.141  1.00  0.00     0.293 HD
ENDBRANCH  41  42
ENDBRANCH  35  36
ENDBRANCH  34  35
BRANCH  34  44
ATOM     44  C   UNL     1      15.528  -5.911  -0.856  1.00  0.00     0.243 C 
ATOM     45  O   UNL     1      16.649  -6.305  -0.547  1.00  0.00    -0.273 OA
ATOM     46  N   UNL     1      15.050  -4.683  -0.449  1.00  0.00    -0.341 N 
ATOM     47  H   UNL     1      14.076  -4.449  -0.627  1.00  0.00     0.164 HD
BRANCH  46  48
ATOM     48  C   UNL     1      15.842  -3.727   0.327  1.00  0.00     0.196 C 
BRANCH  48  49
ATOM     49  C   UNL     1      15.782  -2.319  -0.290  1.00  0.00     0.072 C 
BRANCH  49  50
ATOM     50  C   UNL     1      16.880  -2.080  -1.302  1.00  0.00    -0.045 A 
ATOM     51  C   UNL     1      17.293  -0.771  -1.588  1.00  0.00     0.007 A 
ATOM     52  C   UNL     1      17.482  -3.149  -1.979  1.00  0.00     0.007 A 
ATOM     53  C   UNL     1      18.295  -0.537  -2.530  1.00  0.00     0.046 A 
ATOM     54  C   UNL     1      18.485  -2.914  -2.922  1.00  0.00     0.046 A 
ATOM     55  C   UNL     1      18.884  -1.610  -3.189  1.00  0.00     0.115 A 
BRANCH  55  56
ATOM     56  O   UNL     1      19.858  -1.338  -4.103  1.00  0.00    -0.508 OA
ATOM     57  H   UNL     1      19.623  -0.519  -4.567  1.00  0.00     0.293 HD
ENDBRANCH  55  56
ENDBRANCH  49  50
ENDBRANCH  48  49
BRANCH  48  58
ATOM     58  C   UNL     1      15.305  -3.683   1.764  1.00  0.00     0.326 C 
ATOM     59  O   UNL     1      14.140  -3.758   2.120  1.00  0.00    -0.250 OA
BRANCH  58  60
ATOM     60  O   UNL     1      16.278  -3.559   2.702  1.00  0.00    -0.480 OA
ATOM     61  H   UNL     1      17.094  -3.807   2.216  1.00  0.00     0.296 HD
ENDBRANCH  58  60
ENDBRANCH  48  58
ENDBRANCH  46  48
ENDBRANCH  34  44
ENDBRANCH  32  34
ENDBRANCH  25  30
ENDBRANCH  23  25
ENDBRANCH   2  23
TORSDOF 28
ENDMDL
MODEL 49
REMARK VINA RESULT:    -3.794     12.928     16.587
REMARK INTER + INTRA:         -15.966
REMARK INTER:                  -9.554
REMARK INTRA:                  -6.412
REMARK UNBOUND:                -6.517
REMARK SMILES CCCCCCC[C@H](N)[C@H](O)C(=O)N[C@H](C)C(=O)N(C)[C@H](CC(C)C)C(=O)N[C@@H](Cc1ccc(O)cc1)C(=O)N[C@@H](Cc1ccc(O)cc1)C(=O)O
REMARK SMILES IDX 18 1 17 2 15 3 16 4 14 5 12 6 13 7 10 9 11 10 8 12 9 13 7 16
REMARK SMILES IDX 6 17 5 18 4 19 3 20 2 21 1 22 19 23 20 24 21 25 22 26 23 27
REMARK SMILES IDX 24 28 25 29 26 30 27 31 28 32 29 34 30 35 31 36 32 37 37 38
REMARK SMILES IDX 33 39 36 40 34 41 35 42 38 44 39 45 40 46 41 48 42 49 43 50
REMARK SMILES IDX 44 51 49 52 45 53 48 54 46 55 47 56 50 58 51 59 52 60
REMARK H PARENT 14 8 11 11 9 14 9 15 28 33 35 43 40 47 47 57 52 61
ROOT
ATOM      1  O   UNL     1      18.161 -11.018  -1.214  1.00  0.00    -0.272 OA
ATOM      2  C   UNL     1      17.821 -10.109  -0.443  1.00  0.00     0.245 C 
ENDROOT
BRANCH   2   3
ATOM      3  C   UNL     1      18.304  -8.667  -0.739  1.00  0.00     0.168 C 
ATOM      4  C   UNL     1      19.592  -8.684  -1.554  1.00  0.00     0.041 C 
BRANCH   3   5
ATOM      5  N   UNL     1      17.300  -7.795  -1.329  1.00  0.00    -0.342 N 
ATOM      6  C   UNL     1      16.927  -6.608  -0.734  1.00  0.00     0.251 C 
ATOM      7  O   UNL     1      17.373  -6.220   0.340  1.00  0.00    -0.272 OA
ATOM      8  H   UNL     1      16.834  -8.028  -2.202  1.00  0.00     0.164 HD
BRANCH   6   9
ATOM      9  C   UNL     1      15.961  -5.786  -1.603  1.00  0.00     0.219 C 
BRANCH   9  10
ATOM     10  O   UNL     1      15.134  -4.908  -0.830  1.00  0.00    -0.382 OA
ATOM     11  H   UNL     1      15.453  -4.013  -1.078  1.00  0.00     0.211 HD
ENDBRANCH   9  10
BRANCH   9  12
ATOM     12  C   UNL     1      16.675  -5.010  -2.741  1.00  0.00     0.089 C 
BRANCH  12  13
ATOM     13  N   UNL     1      18.136  -5.208  -2.596  1.00  0.00    -0.325 NA
ATOM     14  H   UNL     1      18.437  -5.955  -3.225  1.00  0.00     0.119 HD
ATOM     15  H   UNL     1      18.331  -5.558  -1.655  1.00  0.00     0.119 HD
ENDBRANCH  12  13
BRANCH  12  16
ATOM     16  C   UNL     1      16.232  -5.359  -4.182  1.00  0.00     0.022 C 
BRANCH  16  17
ATOM     17  C   UNL     1      16.699  -6.680  -4.808  1.00  0.00     0.002 C 
BRANCH  17  18
ATOM     18  C   UNL     1      17.355  -6.546  -6.180  1.00  0.00     0.000 C 
BRANCH  18  19
ATOM     19  C   UNL     1      18.792  -7.083  -6.241  1.00  0.00    -0.000 C 
BRANCH  19  20
ATOM     20  C   UNL     1      19.476  -6.957  -7.606  1.00  0.00    -0.000 C 
BRANCH  20  21
ATOM     21  C   UNL     1      18.710  -7.663  -8.728  1.00  0.00    -0.003 C 
ATOM     22  C   UNL     1      18.869  -9.173  -8.642  1.00  0.00     0.004 C 
ENDBRANCH  20  21
ENDBRANCH  19  20
ENDBRANCH  18  19
ENDBRANCH  17  18
ENDBRANCH  16  17
ENDBRANCH  12  16
ENDBRANCH   9  12
ENDBRANCH   6   9
ENDBRANCH   3   5
ENDBRANCH   2   3
BRANCH   2  23
ATOM     23  N   UNL     1      16.925 -10.370   0.588  1.00  0.00    -0.332 N 
ATOM     24  C   UNL     1      17.296 -10.909   1.888  1.00  0.00     0.147 C 
BRANCH  23  25
ATOM     25  C   UNL     1      15.494  -9.979   0.457  1.00  0.00     0.174 C 
BRANCH  25  26
ATOM     26  C   UNL     1      14.760  -9.915   1.817  1.00  0.00     0.038 C 
BRANCH  26  27
ATOM     27  C   UNL     1      13.608  -8.894   1.944  1.00  0.00    -0.015 C 
ATOM     28  C   UNL     1      13.856  -7.629   1.123  1.00  0.00     0.007 C 
ATOM     29  C   UNL     1      12.237  -9.483   1.623  1.00  0.00     0.007 C 
ENDBRANCH  26  27
ENDBRANCH  25  26
BRANCH  25  30
ATOM     30  C   UNL     1      14.790 -10.875  -0.587  1.00  0.00     0.243 C 
ATOM     31  O   UNL     1      14.640 -12.083  -0.411  1.00  0.00    -0.273 OA
ATOM     32  N   UNL     1      14.354 -10.236  -1.720  1.00  0.00    -0.342 N 
ATOM     33  H   UNL     1      14.389  -9.214  -1.730  1.00  0.00     0.164 HD
BRANCH  32  34
ATOM     34  C   UNL     1      13.691 -10.930  -2.827  1.00  0.00     0.175 C 
BRANCH  34  35
ATOM     35  C   UNL     1      12.320 -10.309  -3.134  1.00  0.00     0.070 C 
BRANCH  35  36
ATOM     36  C   UNL     1      12.286  -8.817  -2.892  1.00  0.00    -0.045 A 
ATOM     37  C   UNL     1      13.005  -7.954  -3.733  1.00  0.00     0.007 A 
ATOM     38  C   UNL     1      11.562  -8.279  -1.821  1.00  0.00     0.007 A 
ATOM     39  C   UNL     1      12.991  -6.577  -3.510  1.00  0.00     0.046 A 
ATOM     40  C   UNL     1      11.548  -6.900  -1.596  1.00  0.00     0.046 A 
ATOM     41  C   UNL     1      12.263  -6.061  -2.444  1.00  0.00     0.115 A 
BRANCH  41  42
ATOM     42  O   UNL     1      12.278  -4.710  -2.259  1.00  0.00    -0.508 OA
ATOM     43  H   UNL     1      12.108  -4.283  -3.115  1.00  0.00     0.293 HD
ENDBRANCH  41  42
ENDBRANCH  35  36
ENDBRANCH  34  35
BRANCH  34  44
ATOM     44  C   UNL     1      14.632 -10.887  -4.051  1.00  0.00     0.243 C 
ATOM     45  O   UNL     1      15.829 -10.617  -3.998  1.00  0.00    -0.273 OA
ATOM     46  N   UNL     1      13.977 -11.054  -5.253  1.00  0.00    -0.341 N 
ATOM     47  H   UNL     1      12.965 -11.158  -5.254  1.00  0.00     0.164 HD
BRANCH  46  48
ATOM     48  C   UNL     1      14.648 -10.984  -6.553  1.00  0.00     0.196 C 
BRANCH  48  49
ATOM     49  C   UNL     1      15.453  -9.681  -6.699  1.00  0.00     0.072 C 
BRANCH  49  50
ATOM     50  C   UNL     1      14.941  -8.803  -7.818  1.00  0.00    -0.045 A 
ATOM     51  C   UNL     1      14.164  -7.674  -7.521  1.00  0.00     0.007 A 
ATOM     52  C   UNL     1      15.213  -9.111  -9.157  1.00  0.00     0.007 A 
ATOM     53  C   UNL     1      13.675  -6.864  -8.546  1.00  0.00     0.046 A 
ATOM     54  C   UNL     1      14.722  -8.301 -10.184  1.00  0.00     0.046 A 
ATOM     55  C   UNL     1      13.958  -7.182  -9.869  1.00  0.00     0.115 A 
BRANCH  55  56
ATOM     56  O   UNL     1      13.460  -6.366 -10.841  1.00  0.00    -0.508 OA
ATOM     57  H   UNL     1      13.515  -6.833 -11.690  1.00  0.00     0.293 HD
ENDBRANCH  55  56
ENDBRANCH  49  50
ENDBRANCH  48  49
BRANCH  48  58
ATOM     58  C   UNL     1      15.589 -12.188  -6.695  1.00  0.00     0.326 C 
ATOM     59  O   UNL     1      16.752 -12.178  -7.063  1.00  0.00    -0.250 OA
BRANCH  58  60
ATOM     60  O   UNL     1      15.014 -13.367  -6.347  1.00  0.00    -0.480 OA
ATOM     61  H   UNL     1      15.743 -14.016  -6.460  1.00  0.00     0.296 HD
ENDBRANCH  58  60
ENDBRANCH  48  58
ENDBRANCH  46  48
ENDBRANCH  34  44
ENDBRANCH  32  34
ENDBRANCH  25  30
ENDBRANCH  23  25
ENDBRANCH   2  23
TORSDOF 28
ENDMDL
MODEL 50
REMARK VINA RESULT:    -3.779     14.196     17.852
REMARK INTER + INTRA:         -15.928
REMARK INTER:                 -10.081
REMARK INTRA:                  -5.848
REMARK UNBOUND:                -6.517
REMARK SMILES CCCCCCC[C@H](N)[C@H](O)C(=O)N[C@H](C)C(=O)N(C)[C@H](CC(C)C)C(=O)N[C@@H](Cc1ccc(O)cc1)C(=O)N[C@@H](Cc1ccc(O)cc1)C(=O)O
REMARK SMILES IDX 18 1 17 2 15 3 16 4 14 5 12 6 13 7 10 9 11 10 8 12 9 13 7 16
REMARK SMILES IDX 6 17 5 18 4 19 3 20 2 21 1 22 19 23 20 24 21 25 22 26 23 27
REMARK SMILES IDX 24 28 25 29 26 30 27 31 28 32 29 34 30 35 31 36 32 37 37 38
REMARK SMILES IDX 33 39 36 40 34 41 35 42 38 44 39 45 40 46 41 48 42 49 43 50
REMARK SMILES IDX 44 51 49 52 45 53 48 54 46 55 47 56 50 58 51 59 52 60
REMARK H PARENT 14 8 11 11 9 14 9 15 28 33 35 43 40 47 47 57 52 61
ROOT
ATOM      1  O   UNL     1      18.004 -11.107   0.962  1.00  0.00    -0.272 OA
ATOM      2  C   UNL     1      16.961 -10.449   1.093  1.00  0.00     0.245 C 
ENDROOT
BRANCH   2   3
ATOM      3  C   UNL     1      16.861  -9.447   2.271  1.00  0.00     0.168 C 
ATOM      4  C   UNL     1      18.011  -8.447   2.231  1.00  0.00     0.041 C 
BRANCH   3   5
ATOM      5  N   UNL     1      15.572  -8.786   2.402  1.00  0.00    -0.342 N 
ATOM      6  C   UNL     1      14.992  -8.560   3.632  1.00  0.00     0.251 C 
ATOM      7  O   UNL     1      15.487  -8.930   4.692  1.00  0.00    -0.272 OA
ATOM      8  H   UNL     1      15.049  -8.465   1.591  1.00  0.00     0.164 HD
BRANCH   6   9
ATOM      9  C   UNL     1      13.706  -7.723   3.538  1.00  0.00     0.219 C 
BRANCH   9  10
ATOM     10  O   UNL     1      13.493  -7.183   2.229  1.00  0.00    -0.382 OA
ATOM     11  H   UNL     1      14.181  -7.623   1.683  1.00  0.00     0.211 HD
ENDBRANCH   9  10
BRANCH   9  12
ATOM     12  C   UNL     1      12.447  -8.483   4.033  1.00  0.00     0.089 C 
BRANCH  12  13
ATOM     13  N   UNL     1      11.258  -7.895   3.374  1.00  0.00    -0.325 NA
ATOM     14  H   UNL     1      11.478  -7.702   2.395  1.00  0.00     0.119 HD
ATOM     15  H   UNL     1      11.067  -6.981   3.790  1.00  0.00     0.119 HD
ENDBRANCH  12  13
BRANCH  12  16
ATOM     16  C   UNL     1      12.461 -10.018   3.835  1.00  0.00     0.022 C 
BRANCH  16  17
ATOM     17  C   UNL     1      11.936 -10.606   2.518  1.00  0.00     0.002 C 
BRANCH  17  18
ATOM     18  C   UNL     1      10.559 -11.259   2.606  1.00  0.00     0.000 C 
BRANCH  18  19
ATOM     19  C   UNL     1      10.599 -12.789   2.715  1.00  0.00    -0.000 C 
BRANCH  19  20
ATOM     20  C   UNL     1      11.927 -13.435   2.309  1.00  0.00    -0.000 C 
BRANCH  20  21
ATOM     21  C   UNL     1      12.477 -14.393   3.369  1.00  0.00    -0.003 C 
ATOM     22  C   UNL     1      12.390 -13.788   4.762  1.00  0.00     0.004 C 
ENDBRANCH  20  21
ENDBRANCH  19  20
ENDBRANCH  18  19
ENDBRANCH  17  18
ENDBRANCH  16  17
ENDBRANCH  12  16
ENDBRANCH   9  12
ENDBRANCH   6   9
ENDBRANCH   3   5
ENDBRANCH   2   3
BRANCH   2  23
ATOM     23  N   UNL     1      15.963 -10.528   0.129  1.00  0.00    -0.332 N 
ATOM     24  C   UNL     1      14.755 -11.330   0.254  1.00  0.00     0.147 C 
BRANCH  23  25
ATOM     25  C   UNL     1      16.017  -9.661  -1.081  1.00  0.00     0.174 C 
BRANCH  25  26
ATOM     26  C   UNL     1      17.452  -9.203  -1.429  1.00  0.00     0.038 C 
BRANCH  26  27
ATOM     27  C   UNL     1      17.857  -9.242  -2.920  1.00  0.00    -0.015 C 
ATOM     28  C   UNL     1      16.743  -9.785  -3.814  1.00  0.00     0.007 C 
ATOM     29  C   UNL     1      18.364  -7.902  -3.447  1.00  0.00     0.007 C 
ENDBRANCH  26  27
ENDBRANCH  25  26
BRANCH  25  30
ATOM     30  C   UNL     1      15.008  -8.498  -0.947  1.00  0.00     0.243 C 
ATOM     31  O   UNL     1      15.182  -7.575  -0.154  1.00  0.00    -0.273 OA
ATOM     32  N   UNL     1      13.909  -8.569  -1.765  1.00  0.00    -0.342 N 
ATOM     33  H   UNL     1      13.906  -9.287  -2.493  1.00  0.00     0.164 HD
BRANCH  32  34
ATOM     34  C   UNL     1      12.837  -7.570  -1.755  1.00  0.00     0.175 C 
BRANCH  34  35
ATOM     35  C   UNL     1      12.396  -7.210  -3.182  1.00  0.00     0.070 C 
BRANCH  35  36
ATOM     36  C   UNL     1      13.563  -6.986  -4.117  1.00  0.00    -0.045 A 
ATOM     37  C   UNL     1      13.713  -7.789  -5.258  1.00  0.00     0.007 A 
ATOM     38  C   UNL     1      14.519  -5.998  -3.849  1.00  0.00     0.007 A 
ATOM     39  C   UNL     1      14.795  -7.600  -6.118  1.00  0.00     0.046 A 
ATOM     40  C   UNL     1      15.603  -5.808  -4.710  1.00  0.00     0.046 A 
ATOM     41  C   UNL     1      15.730  -6.611  -5.838  1.00  0.00     0.115 A 
BRANCH  41  42
ATOM     42  O   UNL     1      16.774  -6.460  -6.703  1.00  0.00    -0.508 OA
ATOM     43  H   UNL     1      16.420  -6.172  -7.561  1.00  0.00     0.293 HD
ENDBRANCH  41  42
ENDBRANCH  35  36
ENDBRANCH  34  35
BRANCH  34  44
ATOM     44  C   UNL     1      11.668  -8.129  -0.913  1.00  0.00     0.243 C 
ATOM     45  O   UNL     1      11.571  -8.010   0.305  1.00  0.00    -0.273 OA
ATOM     46  N   UNL     1      10.789  -8.902  -1.641  1.00  0.00    -0.341 N 
ATOM     47  H   UNL     1      10.976  -9.068  -2.627  1.00  0.00     0.164 HD
BRANCH  46  48
ATOM     48  C   UNL     1       9.642  -9.594  -1.048  1.00  0.00     0.196 C 
BRANCH  48  49
ATOM     49  C   UNL     1       8.319  -9.131  -1.682  1.00  0.00     0.072 C 
BRANCH  49  50
ATOM     50  C   UNL     1       7.482  -8.297  -0.739  1.00  0.00    -0.045 A 
ATOM     51  C   UNL     1       8.085  -7.288   0.025  1.00  0.00     0.007 A 
ATOM     52  C   UNL     1       6.108  -8.531  -0.597  1.00  0.00     0.007 A 
ATOM     53  C   UNL     1       7.325  -6.521   0.908  1.00  0.00     0.046 A 
ATOM     54  C   UNL     1       5.347  -7.764   0.289  1.00  0.00     0.046 A 
ATOM     55  C   UNL     1       5.963  -6.764   1.033  1.00  0.00     0.115 A 
BRANCH  55  56
ATOM     56  O   UNL     1       5.256  -5.994   1.909  1.00  0.00    -0.508 OA
ATOM     57  H   UNL     1       4.471  -6.491   2.189  1.00  0.00     0.293 HD
ENDBRANCH  55  56
ENDBRANCH  49  50
ENDBRANCH  48  49
BRANCH  48  58
ATOM     58  C   UNL     1       9.810 -11.106  -1.253  1.00  0.00     0.326 C 
ATOM     59  O   UNL     1      10.731 -11.806  -0.865  1.00  0.00    -0.250 OA
BRANCH  58  60
ATOM     60  O   UNL     1       8.785 -11.676  -1.935  1.00  0.00    -0.480 OA
ATOM     61  H   UNL     1       9.233 -12.345  -2.498  1.00  0.00     0.296 HD
ENDBRANCH  58  60
ENDBRANCH  48  58
ENDBRANCH  46  48
ENDBRANCH  34  44
ENDBRANCH  32  34
ENDBRANCH  25  30
ENDBRANCH  23  25
ENDBRANCH   2  23
TORSDOF 28
ENDMDL
