MODEL 1
REMARK VINA RESULT:    -7.169      0.000      0.000
REMARK INTER + INTRA:         -26.289
REMARK INTER:                 -20.579
REMARK INTRA:                  -5.711
REMARK UNBOUND:                -5.711
REMARK SMILES CCCCCC(=O)N[C@H](CC(=O)O)C(=O)N[C@H]1C(=O)N[C@H](CCCN=C(N)N)C(=O)N[C@@H]2CC[C@H](O)N(C2=O)[C@@H](CC(C)C)C(=O)N(C)[C@@H](Cc2ccccc2)C(=O)N[C@H](C(C)C)C(=O)O[C@@H]1C
REMARK SMILES IDX 30 1 31 2 29 3 32 5 35 6 37 7 34 8 38 9 33 10 39 11 36 12
REMARK SMILES IDX 40 14 41 15 42 16 43 17 44 18 45 19 46 20 47 21 48 22 49 23
REMARK SMILES IDX 50 24 51 25 52 26 56 27 53 28 55 29 54 30 57 31 58 32 59 33
REMARK SMILES IDX 60 35 61 36 62 37 63 38 64 39 65 40 66 41 67 42 68 43 21 45
REMARK SMILES IDX 20 46 18 47 19 48 17 50 16 52 14 53 15 54 9 56 8 57 6 58
REMARK SMILES IDX 7 59 5 61 4 62 3 63 2 64 1 65 10 66 11 67 12 68 13 69 22 71
REMARK SMILES IDX 23 72 24 73 25 74 26 75 27 76 28 77
REMARK H PARENT 31 4 36 13 59 34 20 49 16 55 8 60 13 70 27 78 27 79 28 80
REMARK H PARENT 28 81
REMARK Flexibility Score:  259.900
ROOT
ATOM      1  O   UNL     1      -1.577  15.376  -4.936  1.00  0.00    -0.273 OA
ATOM      2  N   UNL     1      -1.557  13.569  -3.534  1.00  0.00    -0.343 N 
ATOM      3  C   UNL     1      -1.061  14.316  -4.581  1.00  0.00     0.243 C 
ATOM      4  H   UNL     1      -1.097  12.709  -3.260  1.00  0.00     0.164 HD
ENDROOT
BRANCH   2   5
ATOM      5  C   UNL     1      -2.800  13.950  -2.873  1.00  0.00     0.171 C 
ATOM      6  C   UNL     1      -3.792  13.559  -0.177  1.00  0.00     0.214 C 
ATOM      7  N   UNL     1      -4.089  12.577  -1.193  1.00  0.00    -0.303 N 
ATOM      8  C   UNL     1      -3.634  14.967  -0.730  1.00  0.00     0.057 C 
ATOM      9  C   UNL     1      -3.605  12.676  -2.487  1.00  0.00     0.247 C 
ATOM     10  C   UNL     1      -2.545  14.986  -1.780  1.00  0.00     0.040 C 
ATOM     11  O   UNL     1      -3.792  11.787  -3.328  1.00  0.00    -0.272 OA
BRANCH   6  12
ATOM     12  O   UNL     1      -2.615  13.154   0.482  1.00  0.00    -0.373 OA
ATOM     13  H   UNL     1      -1.946  13.857   0.334  1.00  0.00     0.213 HD
ENDBRANCH   6  12
BRANCH   7  14
ATOM     14  C   UNL     1      -4.820  11.366  -0.761  1.00  0.00     0.177 C 
BRANCH  14  15
ATOM     15  C   UNL     1      -3.935  10.218  -0.238  1.00  0.00     0.038 C 
BRANCH  15  16
ATOM     16  C   UNL     1      -4.530   8.798  -0.106  1.00  0.00    -0.015 C 
ATOM     17  C   UNL     1      -3.574   7.827   0.592  1.00  0.00     0.007 C 
ATOM     18  C   UNL     1      -4.852   8.239  -1.498  1.00  0.00     0.007 C 
ENDBRANCH  15  16
ENDBRANCH  14  15
BRANCH  14  19
ATOM     19  C   UNL     1      -6.230  11.754  -0.196  1.00  0.00     0.245 C 
ATOM     20  O   UNL     1      -7.035  12.255  -0.999  1.00  0.00    -0.272 OA
BRANCH  19  21
ATOM     21  N   UNL     1      -6.573  11.675   1.142  1.00  0.00    -0.332 N 
ATOM     22  C   UNL     1      -5.764  12.152   2.249  1.00  0.00     0.147 C 
BRANCH  21  23
ATOM     23  C   UNL     1      -7.873  11.038   1.490  1.00  0.00     0.178 C 
BRANCH  23  24
ATOM     24  C   UNL     1      -7.756   9.733   2.304  1.00  0.00     0.070 C 
BRANCH  24  25
ATOM     25  C   UNL     1      -7.662   8.442   1.525  1.00  0.00    -0.045 A 
ATOM     26  C   UNL     1      -8.248   8.324   0.258  1.00  0.00     0.004 A 
ATOM     27  C   UNL     1      -6.987   7.337   2.065  1.00  0.00     0.004 A 
ATOM     28  C   UNL     1      -8.172   7.122  -0.448  1.00  0.00     0.000 A 
ATOM     29  C   UNL     1      -6.910   6.137   1.357  1.00  0.00     0.000 A 
ATOM     30  C   UNL     1      -7.506   6.029   0.102  1.00  0.00     0.000 A 
ENDBRANCH  24  25
ENDBRANCH  23  24
BRANCH  23  31
ATOM     31  C   UNL     1      -8.916  12.048   2.025  1.00  0.00     0.243 C 
ATOM     32  O   UNL     1      -9.305  13.031   1.399  1.00  0.00    -0.273 OA
ATOM     33  N   UNL     1      -9.241  11.855   3.357  1.00  0.00    -0.341 N 
ATOM     34  H   UNL     1      -8.881  11.021   3.828  1.00  0.00     0.164 HD
BRANCH  33  35
ATOM     35  C   UNL     1     -10.115  12.761   4.106  1.00  0.00     0.194 C 
BRANCH  35  36
ATOM     36  C   UNL     1      -9.389  13.569   5.219  1.00  0.00     0.017 C 
ATOM     37  C   UNL     1     -10.308  14.648   5.816  1.00  0.00     0.010 C 
ATOM     38  C   UNL     1      -8.118  14.271   4.724  1.00  0.00     0.010 C 
ENDBRANCH  35  36
BRANCH  35  39
ATOM     39  C   UNL     1     -11.391  12.054   4.642  1.00  0.00     0.329 C 
ATOM     40  O   UNL     1     -12.528  12.310   4.263  1.00  0.00    -0.250 OA
BRANCH  39  41
ATOM     41  O   UNL     1     -11.098  11.050   5.523  1.00  0.00    -0.458 OA
BRANCH  41  42
ATOM     42  C   UNL     1     -11.632  11.194   6.861  1.00  0.00     0.205 CG0
ATOM     43  C   UNL     1     -10.462  11.060   7.834  1.00  0.00     0.056 C 
ATOM     44  G   UNL     1     -12.708  10.113   7.080  1.00  0.00     0.000 G0
ENDBRANCH  41  42
ENDBRANCH  39  41
ENDBRANCH  35  39
ENDBRANCH  33  35
ENDBRANCH  23  31
ENDBRANCH  21  23
ENDBRANCH  19  21
ENDBRANCH  14  19
ENDBRANCH   7  14
ENDBRANCH   2   5
BRANCH   3  45
ATOM     45  C   UNL     1       0.192  13.746  -5.259  1.00  0.00     0.171 C 
BRANCH  45  46
ATOM     46  N   UNL     1       0.051  14.059  -6.675  1.00  0.00    -0.342 N 
ATOM     47  C   UNL     1       0.971  14.814  -7.357  1.00  0.00     0.247 C 
ATOM     48  O   UNL     1       2.015  15.220  -6.845  1.00  0.00    -0.273 OA
ATOM     49  H   UNL     1      -0.772  13.695  -7.152  1.00  0.00     0.164 HD
BRANCH  47  50
ATOM     50  C   UNL     1       0.593  15.146  -8.808  1.00  0.00     0.212 CG0
ATOM     51  G   UNL     1      -0.147  16.498  -8.801  1.00  0.00     0.000 G0
BRANCH  50  52
ATOM     52  N   UNL     1       1.856  15.182  -9.541  1.00  0.00    -0.339 N 
ATOM     53  C   UNL     1       2.213  14.243 -10.478  1.00  0.00     0.243 C 
ATOM     54  O   UNL     1       1.516  13.265 -10.734  1.00  0.00    -0.273 OA
ATOM     55  H   UNL     1       2.526  15.907  -9.293  1.00  0.00     0.164 HD
BRANCH  53  56
ATOM     56  C   UNL     1       3.629  14.441 -11.056  1.00  0.00     0.182 C 
BRANCH  56  57
ATOM     57  N   UNL     1       3.584  14.601 -12.513  1.00  0.00    -0.344 N 
ATOM     58  C   UNL     1       3.191  15.773 -13.113  1.00  0.00     0.220 C 
ATOM     59  O   UNL     1       2.781  16.738 -12.478  1.00  0.00    -0.275 OA
ATOM     60  H   UNL     1       4.010  13.866 -13.071  1.00  0.00     0.164 HD
BRANCH  58  61
ATOM     61  C   UNL     1       3.279  15.732 -14.627  1.00  0.00     0.100 C 
BRANCH  61  62
ATOM     62  C   UNL     1       4.360  14.790 -15.157  1.00  0.00     0.010 C 
BRANCH  62  63
ATOM     63  C   UNL     1       5.788  15.335 -15.021  1.00  0.00     0.000 C 
BRANCH  63  64
ATOM     64  C   UNL     1       6.864  14.427 -15.616  1.00  0.00    -0.003 C 
ATOM     65  C   UNL     1       6.940  13.099 -14.877  1.00  0.00     0.004 C 
ENDBRANCH  63  64
ENDBRANCH  62  63
ENDBRANCH  61  62
ENDBRANCH  58  61
ENDBRANCH  56  57
BRANCH  56  66
ATOM     66  C   UNL     1       4.570  13.317 -10.628  1.00  0.00     0.157 C 
BRANCH  66  67
ATOM     67  C   UNL     1       6.007  13.736 -10.747  1.00  0.00     0.305 C 
ATOM     68  O   UNL     1       6.939  13.056 -11.149  1.00  0.00    -0.252 OA
BRANCH  67  69
ATOM     69  O   UNL     1       6.195  15.023 -10.398  1.00  0.00    -0.481 OA
ATOM     70  H   UNL     1       5.355  15.291  -9.967  1.00  0.00     0.296 HD
ENDBRANCH  67  69
ENDBRANCH  66  67
ENDBRANCH  56  66
ENDBRANCH  53  56
ENDBRANCH  50  52
ENDBRANCH  47  50
ENDBRANCH  45  46
BRANCH  45  71
ATOM     71  C   UNL     1       0.288  12.235  -5.021  1.00  0.00     0.037 C 
BRANCH  71  72
ATOM     72  C   UNL     1      -0.596  11.443  -5.988  1.00  0.00     0.026 C 
BRANCH  72  73
ATOM     73  C   UNL     1      -0.475   9.938  -5.753  1.00  0.00     0.146 C 
BRANCH  73  74
ATOM     74  N   UNL     1      -0.404   9.715  -4.312  1.00  0.00    -0.254 NA
ATOM     75  C   UNL     1      -1.461   9.297  -3.719  1.00  0.00     0.185 C 
ATOM     76  N   UNL     1      -1.428   9.081  -2.394  1.00  0.00    -0.370 N 
ATOM     77  N   UNL     1      -2.670   9.024  -4.239  1.00  0.00    -0.370 N 
ATOM     78  H   UNL     1      -0.555   9.270  -1.922  1.00  0.00     0.159 HD
ATOM     79  H   UNL     1      -2.247   8.896  -1.842  1.00  0.00     0.159 HD
ATOM     80  H   UNL     1      -2.842   9.137  -5.227  1.00  0.00     0.159 HD
ATOM     81  H   UNL     1      -3.395   8.590  -3.692  1.00  0.00     0.159 HD
ENDBRANCH  73  74
ENDBRANCH  72  73
ENDBRANCH  71  72
ENDBRANCH  45  71
ENDBRANCH   3  45
TORSDOF 20
ENDMDL
MODEL 2
REMARK VINA RESULT:    -6.926      2.910     15.759
REMARK INTER + INTRA:         -25.593
REMARK INTER:                 -20.872
REMARK INTRA:                  -4.721
REMARK UNBOUND:                -5.711
REMARK SMILES CCCCCC(=O)N[C@H](CC(=O)O)C(=O)N[C@H]1C(=O)N[C@H](CCCN=C(N)N)C(=O)N[C@@H]2CC[C@H](O)N(C2=O)[C@@H](CC(C)C)C(=O)N(C)[C@@H](Cc2ccccc2)C(=O)N[C@H](C(C)C)C(=O)O[C@@H]1C
REMARK SMILES IDX 30 1 31 2 29 3 32 5 35 6 37 7 34 8 38 9 33 10 39 11 36 12
REMARK SMILES IDX 40 14 41 15 42 16 43 17 44 18 45 19 46 20 47 21 48 22 49 23
REMARK SMILES IDX 50 24 51 25 52 26 56 27 53 28 55 29 54 30 57 31 58 32 59 33
REMARK SMILES IDX 60 35 61 36 62 37 63 38 64 39 65 40 66 41 67 42 68 43 21 45
REMARK SMILES IDX 20 46 18 47 19 48 17 50 16 52 14 53 15 54 9 56 8 57 6 58
REMARK SMILES IDX 7 59 5 61 4 62 3 63 2 64 1 65 10 66 11 67 12 68 13 69 22 71
REMARK SMILES IDX 23 72 24 73 25 74 26 75 27 76 28 77
REMARK H PARENT 31 4 36 13 59 34 20 49 16 55 8 60 13 70 27 78 27 79 28 80
REMARK H PARENT 28 81
REMARK Flexibility Score:  259.900
ROOT
ATOM      1  O   UNL     1      -4.272  11.521  -2.738  1.00  0.00    -0.273 OA
ATOM      2  N   UNL     1      -2.298  10.376  -2.588  1.00  0.00    -0.343 N 
ATOM      3  C   UNL     1      -3.347  11.089  -2.050  1.00  0.00     0.243 C 
ATOM      4  H   UNL     1      -1.562  10.024  -1.989  1.00  0.00     0.164 HD
ENDROOT
BRANCH   2   5
ATOM      5  C   UNL     1      -2.181  10.204  -4.032  1.00  0.00     0.171 C 
ATOM      6  C   UNL     1      -0.301   8.748  -5.690  1.00  0.00     0.214 C 
ATOM      7  N   UNL     1      -0.038  10.130  -5.365  1.00  0.00    -0.303 N 
ATOM      8  C   UNL     1      -1.784   8.416  -5.755  1.00  0.00     0.057 C 
ATOM      9  C   UNL     1      -0.868  10.869  -4.537  1.00  0.00     0.247 C 
ATOM     10  C   UNL     1      -2.442   8.754  -4.435  1.00  0.00     0.040 C 
ATOM     11  O   UNL     1      -0.591  12.025  -4.194  1.00  0.00    -0.272 OA
BRANCH   6  12
ATOM     12  O   UNL     1       0.341   7.949  -4.724  1.00  0.00    -0.373 OA
ATOM     13  H   UNL     1      -0.034   8.196  -3.852  1.00  0.00     0.213 HD
ENDBRANCH   6  12
BRANCH   7  14
ATOM     14  C   UNL     1       1.243  10.697  -5.835  1.00  0.00     0.177 C 
BRANCH  14  15
ATOM     15  C   UNL     1       2.506  10.066  -5.218  1.00  0.00     0.038 C 
BRANCH  15  16
ATOM     16  C   UNL     1       3.187  10.750  -4.012  1.00  0.00    -0.015 C 
ATOM     17  C   UNL     1       4.581  11.283  -4.353  1.00  0.00     0.007 C 
ATOM     18  C   UNL     1       3.325   9.748  -2.858  1.00  0.00     0.007 C 
ENDBRANCH  15  16
ENDBRANCH  14  15
BRANCH  14  19
ATOM     19  C   UNL     1       1.108  11.192  -7.317  1.00  0.00     0.245 C 
ATOM     20  O   UNL     1       0.057  10.898  -7.911  1.00  0.00    -0.272 OA
BRANCH  19  21
ATOM     21  N   UNL     1       2.122  11.825  -8.014  1.00  0.00    -0.332 N 
ATOM     22  C   UNL     1       3.462  11.302  -8.213  1.00  0.00     0.147 C 
BRANCH  21  23
ATOM     23  C   UNL     1       1.831  13.160  -8.605  1.00  0.00     0.178 C 
BRANCH  23  24
ATOM     24  C   UNL     1       2.309  14.359  -7.760  1.00  0.00     0.070 C 
BRANCH  24  25
ATOM     25  C   UNL     1       1.312  15.466  -7.510  1.00  0.00    -0.045 A 
ATOM     26  C   UNL     1       0.582  15.517  -6.316  1.00  0.00     0.004 A 
ATOM     27  C   UNL     1       1.101  16.460  -8.478  1.00  0.00     0.004 A 
ATOM     28  C   UNL     1      -0.350  16.535  -6.100  1.00  0.00     0.000 A 
ATOM     29  C   UNL     1       0.170  17.476  -8.260  1.00  0.00     0.000 A 
ATOM     30  C   UNL     1      -0.557  17.511  -7.072  1.00  0.00     0.000 A 
ENDBRANCH  24  25
ENDBRANCH  23  24
BRANCH  23  31
ATOM     31  C   UNL     1       2.181  13.243 -10.110  1.00  0.00     0.243 C 
ATOM     32  O   UNL     1       1.707  12.501 -10.968  1.00  0.00    -0.273 OA
ATOM     33  N   UNL     1       3.223  14.111 -10.389  1.00  0.00    -0.341 N 
ATOM     34  H   UNL     1       3.581  14.699  -9.632  1.00  0.00     0.164 HD
BRANCH  33  35
ATOM     35  C   UNL     1       3.802  14.261 -11.727  1.00  0.00     0.194 C 
BRANCH  35  36
ATOM     36  C   UNL     1       5.356  14.286 -11.747  1.00  0.00     0.017 C 
ATOM     37  C   UNL     1       5.932  12.921 -12.165  1.00  0.00     0.010 C 
ATOM     38  C   UNL     1       5.973  14.648 -10.391  1.00  0.00     0.010 C 
ENDBRANCH  35  36
BRANCH  35  39
ATOM     39  C   UNL     1       3.192  15.457 -12.511  1.00  0.00     0.329 C 
ATOM     40  O   UNL     1       2.442  16.290 -12.017  1.00  0.00    -0.250 OA
BRANCH  39  41
ATOM     41  O   UNL     1       3.656  15.527 -13.796  1.00  0.00    -0.458 OA
BRANCH  41  42
ATOM     42  C   UNL     1       4.460  16.685 -14.125  1.00  0.00     0.205 CG0
ATOM     43  C   UNL     1       3.694  17.485 -15.176  1.00  0.00     0.056 C 
ATOM     44  G   UNL     1       5.832  16.202 -14.636  1.00  0.00     0.000 G0
ENDBRANCH  41  42
ENDBRANCH  39  41
ENDBRANCH  35  39
ENDBRANCH  33  35
ENDBRANCH  23  31
ENDBRANCH  21  23
ENDBRANCH  19  21
ENDBRANCH  14  19
ENDBRANCH   7  14
ENDBRANCH   2   5
BRANCH   3  45
ATOM     45  C   UNL     1      -3.294  11.290  -0.529  1.00  0.00     0.171 C 
BRANCH  45  46
ATOM     46  N   UNL     1      -4.650  11.051  -0.053  1.00  0.00    -0.342 N 
ATOM     47  C   UNL     1      -5.056   9.835   0.436  1.00  0.00     0.247 C 
ATOM     48  O   UNL     1      -4.289   8.882   0.576  1.00  0.00    -0.273 OA
ATOM     49  H   UNL     1      -5.303  11.831  -0.098  1.00  0.00     0.164 HD
BRANCH  47  50
ATOM     50  C   UNL     1      -6.550   9.736   0.774  1.00  0.00     0.212 CG0
ATOM     51  G   UNL     1      -6.711   8.666   1.872  1.00  0.00     0.000 G0
BRANCH  50  52
ATOM     52  N   UNL     1      -6.940  11.074   1.211  1.00  0.00    -0.339 N 
ATOM     53  C   UNL     1      -7.937  11.803   0.610  1.00  0.00     0.243 C 
ATOM     54  O   UNL     1      -8.545  11.405  -0.380  1.00  0.00    -0.273 OA
ATOM     55  H   UNL     1      -6.398  11.504   1.957  1.00  0.00     0.164 HD
BRANCH  53  56
ATOM     56  C   UNL     1      -8.112  13.222   1.189  1.00  0.00     0.182 C 
BRANCH  56  57
ATOM     57  N   UNL     1      -7.924  13.225   2.643  1.00  0.00    -0.344 N 
ATOM     58  C   UNL     1      -6.989  14.017   3.263  1.00  0.00     0.220 C 
ATOM     59  O   UNL     1      -6.198  14.720   2.643  1.00  0.00    -0.275 OA
ATOM     60  H   UNL     1      -8.622  12.737   3.198  1.00  0.00     0.164 HD
BRANCH  58  61
ATOM     61  C   UNL     1      -7.010  13.900   4.776  1.00  0.00     0.100 C 
BRANCH  61  62
ATOM     62  C   UNL     1      -5.862  13.068   5.347  1.00  0.00     0.010 C 
BRANCH  62  63
ATOM     63  C   UNL     1      -6.085  12.597   6.790  1.00  0.00     0.000 C 
BRANCH  63  64
ATOM     64  C   UNL     1      -6.184  11.080   6.946  1.00  0.00    -0.003 C 
ATOM     65  C   UNL     1      -7.629  10.608   6.882  1.00  0.00     0.004 C 
ENDBRANCH  63  64
ENDBRANCH  62  63
ENDBRANCH  61  62
ENDBRANCH  58  61
ENDBRANCH  56  57
BRANCH  56  66
ATOM     66  C   UNL     1      -9.450  13.834   0.779  1.00  0.00     0.157 C 
BRANCH  66  67
ATOM     67  C   UNL     1      -9.262  14.925  -0.235  1.00  0.00     0.305 C 
ATOM     68  O   UNL     1      -8.318  15.062  -0.998  1.00  0.00    -0.252 OA
BRANCH  67  69
ATOM     69  O   UNL     1     -10.308  15.772  -0.274  1.00  0.00    -0.481 OA
ATOM     70  H   UNL     1     -10.172  16.300  -1.089  1.00  0.00     0.296 HD
ENDBRANCH  67  69
ENDBRANCH  66  67
ENDBRANCH  56  66
ENDBRANCH  53  56
ENDBRANCH  50  52
ENDBRANCH  47  50
ENDBRANCH  45  46
BRANCH  45  71
ATOM     71  C   UNL     1      -2.818  12.707  -0.194  1.00  0.00     0.037 C 
BRANCH  71  72
ATOM     72  C   UNL     1      -3.987  13.672   0.018  1.00  0.00     0.026 C 
BRANCH  72  73
ATOM     73  C   UNL     1      -3.748  15.006  -0.686  1.00  0.00     0.146 C 
BRANCH  73  74
ATOM     74  N   UNL     1      -2.576  14.854  -1.544  1.00  0.00    -0.254 NA
ATOM     75  C   UNL     1      -2.772  14.669  -2.797  1.00  0.00     0.185 C 
ATOM     76  N   UNL     1      -1.714  14.527  -3.612  1.00  0.00    -0.370 N 
ATOM     77  N   UNL     1      -3.934  14.588  -3.468  1.00  0.00    -0.370 N 
ATOM     78  H   UNL     1      -0.799  14.567  -3.186  1.00  0.00     0.159 HD
ATOM     79  H   UNL     1      -1.789  14.236  -4.571  1.00  0.00     0.159 HD
ATOM     80  H   UNL     1      -4.814  14.681  -2.984  1.00  0.00     0.159 HD
ATOM     81  H   UNL     1      -3.962  14.555  -4.474  1.00  0.00     0.159 HD
ENDBRANCH  73  74
ENDBRANCH  72  73
ENDBRANCH  71  72
ENDBRANCH  45  71
ENDBRANCH   3  45
TORSDOF 20
ENDMDL
MODEL 3
REMARK VINA RESULT:    -6.879      2.773      4.784
REMARK INTER + INTRA:         -25.459
REMARK INTER:                 -18.356
REMARK INTRA:                  -7.103
REMARK UNBOUND:                -5.711
REMARK SMILES CCCCCC(=O)N[C@H](CC(=O)O)C(=O)N[C@H]1C(=O)N[C@H](CCCN=C(N)N)C(=O)N[C@@H]2CC[C@H](O)N(C2=O)[C@@H](CC(C)C)C(=O)N(C)[C@@H](Cc2ccccc2)C(=O)N[C@H](C(C)C)C(=O)O[C@@H]1C
REMARK SMILES IDX 30 1 31 2 29 3 32 5 35 6 37 7 34 8 38 9 33 10 39 11 36 12
REMARK SMILES IDX 40 14 41 15 42 16 43 17 44 18 45 19 46 20 47 21 48 22 49 23
REMARK SMILES IDX 50 24 51 25 52 26 56 27 53 28 55 29 54 30 57 31 58 32 59 33
REMARK SMILES IDX 60 35 61 36 62 37 63 38 64 39 65 40 66 41 67 42 68 43 21 45
REMARK SMILES IDX 20 46 18 47 19 48 17 50 16 52 14 53 15 54 9 56 8 57 6 58
REMARK SMILES IDX 7 59 5 61 4 62 3 63 2 64 1 65 10 66 11 67 12 68 13 69 22 71
REMARK SMILES IDX 23 72 24 73 25 74 26 75 27 76 28 77
REMARK H PARENT 31 4 36 13 59 34 20 49 16 55 8 60 13 70 27 78 27 79 28 80
REMARK H PARENT 28 81
REMARK Flexibility Score:  259.900
ROOT
ATOM      1  O   UNL     1      -1.407  15.059  -5.017  1.00  0.00    -0.273 OA
ATOM      2  N   UNL     1      -1.476  13.338  -3.512  1.00  0.00    -0.343 N 
ATOM      3  C   UNL     1      -0.934  14.005  -4.589  1.00  0.00     0.243 C 
ATOM      4  H   UNL     1      -1.051  12.482  -3.178  1.00  0.00     0.164 HD
ENDROOT
BRANCH   2   5
ATOM      5  C   UNL     1      -2.719  13.798  -2.902  1.00  0.00     0.171 C 
ATOM      6  C   UNL     1      -3.782  13.593  -0.213  1.00  0.00     0.214 C 
ATOM      7  N   UNL     1      -4.092  12.566  -1.180  1.00  0.00    -0.303 N 
ATOM      8  C   UNL     1      -3.562  14.961  -0.838  1.00  0.00     0.057 C 
ATOM      9  C   UNL     1      -3.576  12.576  -2.466  1.00  0.00     0.247 C 
ATOM     10  C   UNL     1      -2.450  14.884  -1.862  1.00  0.00     0.040 C 
ATOM     11  O   UNL     1      -3.777  11.648  -3.260  1.00  0.00    -0.272 OA
BRANCH   6  12
ATOM     12  O   UNL     1      -2.634  13.185   0.495  1.00  0.00    -0.373 OA
ATOM     13  H   UNL     1      -2.847  12.326   0.919  1.00  0.00     0.213 HD
ENDBRANCH   6  12
BRANCH   7  14
ATOM     14  C   UNL     1      -4.874  11.407  -0.699  1.00  0.00     0.177 C 
BRANCH  14  15
ATOM     15  C   UNL     1      -4.039  10.228  -0.163  1.00  0.00     0.038 C 
BRANCH  15  16
ATOM     16  C   UNL     1      -4.475   8.780  -0.481  1.00  0.00    -0.015 C 
ATOM     17  C   UNL     1      -3.349   7.768  -0.249  1.00  0.00     0.007 C 
ATOM     18  C   UNL     1      -4.916   8.681  -1.946  1.00  0.00     0.007 C 
ENDBRANCH  15  16
ENDBRANCH  14  15
BRANCH  14  19
ATOM     19  C   UNL     1      -6.249  11.884  -0.115  1.00  0.00     0.245 C 
ATOM     20  O   UNL     1      -7.048  12.398  -0.916  1.00  0.00    -0.272 OA
BRANCH  19  21
ATOM     21  N   UNL     1      -6.563  11.864   1.232  1.00  0.00    -0.332 N 
ATOM     22  C   UNL     1      -5.836  12.562   2.277  1.00  0.00     0.147 C 
BRANCH  21  23
ATOM     23  C   UNL     1      -7.737  11.054   1.661  1.00  0.00     0.178 C 
BRANCH  23  24
ATOM     24  C   UNL     1      -7.393   9.837   2.544  1.00  0.00     0.070 C 
BRANCH  24  25
ATOM     25  C   UNL     1      -7.223   8.507   1.846  1.00  0.00    -0.045 A 
ATOM     26  C   UNL     1      -6.384   7.519   2.378  1.00  0.00     0.004 A 
ATOM     27  C   UNL     1      -7.904   8.245   0.648  1.00  0.00     0.004 A 
ATOM     28  C   UNL     1      -6.220   6.300   1.718  1.00  0.00     0.000 A 
ATOM     29  C   UNL     1      -7.740   7.025  -0.010  1.00  0.00     0.000 A 
ATOM     30  C   UNL     1      -6.895   6.054   0.525  1.00  0.00     0.000 A 
ENDBRANCH  24  25
ENDBRANCH  23  24
BRANCH  23  31
ATOM     31  C   UNL     1      -8.912  11.919   2.174  1.00  0.00     0.243 C 
ATOM     32  O   UNL     1      -9.484  12.771   1.498  1.00  0.00    -0.273 OA
ATOM     33  N   UNL     1      -9.149  11.782   3.531  1.00  0.00    -0.341 N 
ATOM     34  H   UNL     1      -8.637  11.059   4.043  1.00  0.00     0.164 HD
BRANCH  33  35
ATOM     35  C   UNL     1     -10.133  12.590   4.256  1.00  0.00     0.194 C 
BRANCH  35  36
ATOM     36  C   UNL     1      -9.595  13.215   5.574  1.00  0.00     0.017 C 
ATOM     37  C   UNL     1      -9.847  12.288   6.776  1.00  0.00     0.010 C 
ATOM     38  C   UNL     1     -10.229  14.573   5.902  1.00  0.00     0.010 C 
ENDBRANCH  35  36
BRANCH  35  39
ATOM     39  C   UNL     1     -11.477  11.840   4.476  1.00  0.00     0.329 C 
ATOM     40  O   UNL     1     -12.558  12.398   4.626  1.00  0.00    -0.250 OA
BRANCH  39  41
ATOM     41  O   UNL     1     -11.333  10.482   4.396  1.00  0.00    -0.458 OA
BRANCH  41  42
ATOM     42  C   UNL     1     -12.550   9.718   4.220  1.00  0.00     0.205 CG0
ATOM     43  C   UNL     1     -12.612   9.294   2.754  1.00  0.00     0.056 C 
ATOM     44  G   UNL     1     -13.748  10.599   4.630  1.00  0.00     0.000 G0
ENDBRANCH  41  42
ENDBRANCH  39  41
ENDBRANCH  35  39
ENDBRANCH  33  35
ENDBRANCH  23  31
ENDBRANCH  21  23
ENDBRANCH  19  21
ENDBRANCH  14  19
ENDBRANCH   7  14
ENDBRANCH   2   5
BRANCH   3  45
ATOM     45  C   UNL     1       0.313  13.356  -5.205  1.00  0.00     0.171 C 
BRANCH  45  46
ATOM     46  N   UNL     1       0.170  13.517  -6.646  1.00  0.00    -0.342 N 
ATOM     47  C   UNL     1       1.076  14.216  -7.402  1.00  0.00     0.247 C 
ATOM     48  O   UNL     1       2.110  14.694  -6.933  1.00  0.00    -0.273 OA
ATOM     49  H   UNL     1      -0.644  13.088  -7.084  1.00  0.00     0.164 HD
BRANCH  47  50
ATOM     50  C   UNL     1       0.696  14.386  -8.880  1.00  0.00     0.212 CG0
ATOM     51  G   UNL     1       1.930  14.942  -9.618  1.00  0.00     0.000 G0
BRANCH  50  52
ATOM     52  N   UNL     1       0.301  13.056  -9.336  1.00  0.00    -0.339 N 
ATOM     53  C   UNL     1       0.909  12.404 -10.381  1.00  0.00     0.243 C 
ATOM     54  O   UNL     1       1.803  12.916 -11.050  1.00  0.00    -0.273 OA
ATOM     55  H   UNL     1      -0.508  12.626  -8.893  1.00  0.00     0.164 HD
BRANCH  53  56
ATOM     56  C   UNL     1       0.264  11.050 -10.736  1.00  0.00     0.182 C 
BRANCH  56  57
ATOM     57  N   UNL     1      -0.740  10.667  -9.738  1.00  0.00    -0.344 N 
ATOM     58  C   UNL     1      -2.074  10.550 -10.044  1.00  0.00     0.220 C 
ATOM     59  O   UNL     1      -2.528  10.826 -11.149  1.00  0.00    -0.275 OA
ATOM     60  H   UNL     1      -0.395  10.333  -8.842  1.00  0.00     0.164 HD
BRANCH  58  61
ATOM     61  C   UNL     1      -2.921  10.086  -8.873  1.00  0.00     0.100 C 
BRANCH  61  62
ATOM     62  C   UNL     1      -2.271   8.980  -8.042  1.00  0.00     0.010 C 
BRANCH  62  63
ATOM     63  C   UNL     1      -3.184   7.776  -7.775  1.00  0.00     0.000 C 
BRANCH  63  64
ATOM     64  C   UNL     1      -4.142   7.451  -8.919  1.00  0.00    -0.003 C 
ATOM     65  C   UNL     1      -5.138   6.372  -8.519  1.00  0.00     0.004 C 
ENDBRANCH  63  64
ENDBRANCH  62  63
ENDBRANCH  61  62
ENDBRANCH  58  61
ENDBRANCH  56  57
BRANCH  56  66
ATOM     66  C   UNL     1       1.318   9.963 -10.939  1.00  0.00     0.157 C 
BRANCH  66  67
ATOM     67  C   UNL     1       0.902   8.674 -10.290  1.00  0.00     0.305 C 
ATOM     68  O   UNL     1       0.192   7.806 -10.774  1.00  0.00    -0.252 OA
BRANCH  67  69
ATOM     69  O   UNL     1       1.450   8.515  -9.071  1.00  0.00    -0.481 OA
ATOM     70  H   UNL     1       1.381   9.397  -8.648  1.00  0.00     0.296 HD
ENDBRANCH  67  69
ENDBRANCH  66  67
ENDBRANCH  56  66
ENDBRANCH  53  56
ENDBRANCH  50  52
ENDBRANCH  47  50
ENDBRANCH  45  46
BRANCH  45  71
ATOM     71  C   UNL     1       0.397  11.878  -4.806  1.00  0.00     0.037 C 
BRANCH  71  72
ATOM     72  C   UNL     1       1.812  11.318  -4.968  1.00  0.00     0.026 C 
BRANCH  72  73
ATOM     73  C   UNL     1       1.887  10.304  -6.108  1.00  0.00     0.146 C 
BRANCH  73  74
ATOM     74  N   UNL     1       2.211  11.031  -7.331  1.00  0.00    -0.254 NA
ATOM     75  C   UNL     1       3.423  10.994  -7.747  1.00  0.00     0.185 C 
ATOM     76  N   UNL     1       3.752  11.651  -8.870  1.00  0.00    -0.370 N 
ATOM     77  N   UNL     1       4.482  10.364  -7.208  1.00  0.00    -0.370 N 
ATOM     78  H   UNL     1       3.014  12.159  -9.336  1.00  0.00     0.159 HD
ATOM     79  H   UNL     1       4.700  11.787  -9.175  1.00  0.00     0.159 HD
ATOM     80  H   UNL     1       4.383   9.825  -6.362  1.00  0.00     0.159 HD
ATOM     81  H   UNL     1       5.365  10.310  -7.689  1.00  0.00     0.159 HD
ENDBRANCH  73  74
ENDBRANCH  72  73
ENDBRANCH  71  72
ENDBRANCH  45  71
ENDBRANCH   3  45
TORSDOF 20
ENDMDL
MODEL 4
REMARK VINA RESULT:    -6.792      1.681      3.085
REMARK INTER + INTRA:         -25.209
REMARK INTER:                 -18.460
REMARK INTRA:                  -6.749
REMARK UNBOUND:                -5.711
REMARK SMILES CCCCCC(=O)N[C@H](CC(=O)O)C(=O)N[C@H]1C(=O)N[C@H](CCCN=C(N)N)C(=O)N[C@@H]2CC[C@H](O)N(C2=O)[C@@H](CC(C)C)C(=O)N(C)[C@@H](Cc2ccccc2)C(=O)N[C@H](C(C)C)C(=O)O[C@@H]1C
REMARK SMILES IDX 30 1 31 2 29 3 32 5 35 6 37 7 34 8 38 9 33 10 39 11 36 12
REMARK SMILES IDX 40 14 41 15 42 16 43 17 44 18 45 19 46 20 47 21 48 22 49 23
REMARK SMILES IDX 50 24 51 25 52 26 56 27 53 28 55 29 54 30 57 31 58 32 59 33
REMARK SMILES IDX 60 35 61 36 62 37 63 38 64 39 65 40 66 41 67 42 68 43 21 45
REMARK SMILES IDX 20 46 18 47 19 48 17 50 16 52 14 53 15 54 9 56 8 57 6 58
REMARK SMILES IDX 7 59 5 61 4 62 3 63 2 64 1 65 10 66 11 67 12 68 13 69 22 71
REMARK SMILES IDX 23 72 24 73 25 74 26 75 27 76 28 77
REMARK H PARENT 31 4 36 13 59 34 20 49 16 55 8 60 13 70 27 78 27 79 28 80
REMARK H PARENT 28 81
REMARK Flexibility Score:  259.900
ROOT
ATOM      1  O   UNL     1      -1.491  14.640  -5.103  1.00  0.00    -0.273 OA
ATOM      2  N   UNL     1      -1.785  12.917  -3.628  1.00  0.00    -0.343 N 
ATOM      3  C   UNL     1      -1.180  13.514  -4.713  1.00  0.00     0.243 C 
ATOM      4  H   UNL     1      -1.493  11.995  -3.327  1.00  0.00     0.164 HD
ENDROOT
BRANCH   2   5
ATOM      5  C   UNL     1      -2.916  13.556  -2.964  1.00  0.00     0.171 C 
ATOM      6  C   UNL     1      -3.776  13.641  -0.196  1.00  0.00     0.214 C 
ATOM      7  N   UNL     1      -4.276  12.601  -1.064  1.00  0.00    -0.303 N 
ATOM      8  C   UNL     1      -3.455  14.934  -0.930  1.00  0.00     0.057 C 
ATOM      9  C   UNL     1      -3.867  12.472  -2.381  1.00  0.00     0.247 C 
ATOM     10  C   UNL     1      -2.444  14.665  -2.024  1.00  0.00     0.040 C 
ATOM     11  O   UNL     1      -4.234  11.527  -3.093  1.00  0.00    -0.272 OA
BRANCH   6  12
ATOM     12  O   UNL     1      -2.628  13.145   0.453  1.00  0.00    -0.373 OA
ATOM     13  H   UNL     1      -2.881  12.297   0.876  1.00  0.00     0.213 HD
ENDBRANCH   6  12
BRANCH   7  14
ATOM     14  C   UNL     1      -5.142  11.573  -0.448  1.00  0.00     0.177 C 
BRANCH  14  15
ATOM     15  C   UNL     1      -4.401  10.360   0.145  1.00  0.00     0.038 C 
BRANCH  15  16
ATOM     16  C   UNL     1      -5.033   8.954   0.037  1.00  0.00    -0.015 C 
ATOM     17  C   UNL     1      -4.103   7.854   0.557  1.00  0.00     0.007 C 
ATOM     18  C   UNL     1      -5.368   8.647  -1.428  1.00  0.00     0.007 C 
ENDBRANCH  15  16
ENDBRANCH  14  15
BRANCH  14  19
ATOM     19  C   UNL     1      -6.426  12.237   0.159  1.00  0.00     0.245 C 
ATOM     20  O   UNL     1      -7.134  12.899  -0.618  1.00  0.00    -0.272 OA
BRANCH  19  21
ATOM     21  N   UNL     1      -6.741  12.217   1.506  1.00  0.00    -0.332 N 
ATOM     22  C   UNL     1      -5.992  12.883   2.556  1.00  0.00     0.147 C 
BRANCH  21  23
ATOM     23  C   UNL     1      -7.941  11.443   1.929  1.00  0.00     0.178 C 
BRANCH  23  24
ATOM     24  C   UNL     1      -7.632  10.162   2.730  1.00  0.00     0.070 C 
BRANCH  24  25
ATOM     25  C   UNL     1      -7.804   8.843   2.012  1.00  0.00    -0.045 A 
ATOM     26  C   UNL     1      -8.520   8.769   0.810  1.00  0.00     0.004 A 
ATOM     27  C   UNL     1      -7.251   7.670   2.545  1.00  0.00     0.004 A 
ATOM     28  C   UNL     1      -8.688   7.543   0.161  1.00  0.00     0.000 A 
ATOM     29  C   UNL     1      -7.420   6.446   1.895  1.00  0.00     0.000 A 
ATOM     30  C   UNL     1      -8.141   6.384   0.705  1.00  0.00     0.000 A 
ENDBRANCH  24  25
ENDBRANCH  23  24
BRANCH  23  31
ATOM     31  C   UNL     1      -9.054  12.335   2.529  1.00  0.00     0.243 C 
ATOM     32  O   UNL     1      -9.573  13.278   1.937  1.00  0.00    -0.273 OA
ATOM     33  N   UNL     1      -9.291  12.094   3.872  1.00  0.00    -0.341 N 
ATOM     34  H   UNL     1      -8.824  11.297   4.312  1.00  0.00     0.164 HD
BRANCH  33  35
ATOM     35  C   UNL     1     -10.216  12.898   4.676  1.00  0.00     0.194 C 
BRANCH  35  36
ATOM     36  C   UNL     1      -9.558  13.580   5.908  1.00  0.00     0.017 C 
ATOM     37  C   UNL     1     -10.486  14.643   6.521  1.00  0.00     0.010 C 
ATOM     38  C   UNL     1      -8.227  14.267   5.580  1.00  0.00     0.010 C 
ENDBRANCH  35  36
BRANCH  35  39
ATOM     39  C   UNL     1     -11.504  12.118   5.063  1.00  0.00     0.329 C 
ATOM     40  O   UNL     1     -12.624  12.394   4.649  1.00  0.00    -0.250 OA
BRANCH  39  41
ATOM     41  O   UNL     1     -11.237  11.032   5.851  1.00  0.00    -0.458 OA
BRANCH  41  42
ATOM     42  C   UNL     1     -11.796  11.057   7.186  1.00  0.00     0.205 CG0
ATOM     43  C   UNL     1     -10.975  10.092   8.039  1.00  0.00     0.056 C 
ATOM     44  G   UNL     1     -13.282  10.654   7.105  1.00  0.00     0.000 G0
ENDBRANCH  41  42
ENDBRANCH  39  41
ENDBRANCH  35  39
ENDBRANCH  33  35
ENDBRANCH  23  31
ENDBRANCH  21  23
ENDBRANCH  19  21
ENDBRANCH  14  19
ENDBRANCH   7  14
ENDBRANCH   2   5
BRANCH   3  45
ATOM     45  C   UNL     1      -0.076  12.688  -5.387  1.00  0.00     0.171 C 
BRANCH  45  46
ATOM     46  N   UNL     1       0.582  13.595  -6.317  1.00  0.00    -0.342 N 
ATOM     47  C   UNL     1       1.940  13.589  -6.515  1.00  0.00     0.247 C 
ATOM     48  O   UNL     1       2.690  12.772  -5.979  1.00  0.00    -0.273 OA
ATOM     49  H   UNL     1      -0.008  14.252  -6.825  1.00  0.00     0.164 HD
BRANCH  47  50
ATOM     50  C   UNL     1       2.468  14.697  -7.437  1.00  0.00     0.212 CG0
ATOM     51  G   UNL     1       4.002  14.738  -7.288  1.00  0.00     0.000 G0
BRANCH  50  52
ATOM     52  N   UNL     1       2.029  14.329  -8.780  1.00  0.00    -0.339 N 
ATOM     53  C   UNL     1       2.635  13.351  -9.532  1.00  0.00     0.243 C 
ATOM     54  O   UNL     1       3.632  12.745  -9.150  1.00  0.00    -0.273 OA
ATOM     55  H   UNL     1       1.276  14.872  -9.197  1.00  0.00     0.164 HD
BRANCH  53  56
ATOM     56  C   UNL     1       2.051  13.199 -10.951  1.00  0.00     0.182 C 
BRANCH  56  57
ATOM     57  N   UNL     1       1.101  12.084 -11.013  1.00  0.00    -0.344 N 
ATOM     58  C   UNL     1      -0.043  12.049 -10.253  1.00  0.00     0.220 C 
ATOM     59  O   UNL     1      -0.312  12.907  -9.420  1.00  0.00    -0.275 OA
ATOM     60  H   UNL     1       1.233  11.407 -11.760  1.00  0.00     0.164 HD
BRANCH  58  61
ATOM     61  C   UNL     1      -0.907  10.831 -10.522  1.00  0.00     0.100 C 
BRANCH  61  62
ATOM     62  C   UNL     1      -1.154   9.965  -9.287  1.00  0.00     0.010 C 
BRANCH  62  63
ATOM     63  C   UNL     1      -0.585   8.545  -9.391  1.00  0.00     0.000 C 
BRANCH  63  64
ATOM     64  C   UNL     1       0.870   8.485  -9.853  1.00  0.00    -0.003 C 
ATOM     65  C   UNL     1       1.816   8.255  -8.683  1.00  0.00     0.004 C 
ENDBRANCH  63  64
ENDBRANCH  62  63
ENDBRANCH  61  62
ENDBRANCH  58  61
ENDBRANCH  56  57
BRANCH  56  66
ATOM     66  C   UNL     1       3.155  13.075 -12.000  1.00  0.00     0.157 C 
BRANCH  66  67
ATOM     67  C   UNL     1       3.522  14.417 -12.564  1.00  0.00     0.305 C 
ATOM     68  O   UNL     1       3.894  15.398 -11.939  1.00  0.00    -0.252 OA
BRANCH  67  69
ATOM     69  O   UNL     1       3.453  14.444 -13.909  1.00  0.00    -0.481 OA
ATOM     70  H   UNL     1       3.323  13.508 -14.171  1.00  0.00     0.296 HD
ENDBRANCH  67  69
ENDBRANCH  66  67
ENDBRANCH  56  66
ENDBRANCH  53  56
ENDBRANCH  50  52
ENDBRANCH  47  50
ENDBRANCH  45  46
BRANCH  45  71
ATOM     71  C   UNL     1      -0.681  11.479  -6.109  1.00  0.00     0.037 C 
BRANCH  71  72
ATOM     72  C   UNL     1       0.228  10.250  -6.034  1.00  0.00     0.026 C 
BRANCH  72  73
ATOM     73  C   UNL     1      -0.495   9.054  -5.419  1.00  0.00     0.146 C 
BRANCH  73  74
ATOM     74  N   UNL     1      -0.596   9.283  -3.981  1.00  0.00    -0.254 NA
ATOM     75  C   UNL     1      -1.756   9.203  -3.441  1.00  0.00     0.185 C 
ATOM     76  N   UNL     1      -1.880   9.407  -2.120  1.00  0.00    -0.370 N 
ATOM     77  N   UNL     1      -2.939   8.929  -4.018  1.00  0.00    -0.370 N 
ATOM     78  H   UNL     1      -1.036   9.627  -1.610  1.00  0.00     0.159 HD
ATOM     79  H   UNL     1      -2.766   9.504  -1.655  1.00  0.00     0.159 HD
ATOM     80  H   UNL     1      -2.998   8.749  -5.009  1.00  0.00     0.159 HD
ATOM     81  H   UNL     1      -3.771   8.778  -3.471  1.00  0.00     0.159 HD
ENDBRANCH  73  74
ENDBRANCH  72  73
ENDBRANCH  71  72
ENDBRANCH  45  71
ENDBRANCH   3  45
TORSDOF 20
ENDMDL
MODEL 5
REMARK VINA RESULT:    -6.790      3.762      7.170
REMARK INTER + INTRA:         -25.202
REMARK INTER:                 -19.697
REMARK INTRA:                  -5.504
REMARK UNBOUND:                -5.711
REMARK SMILES CCCCCC(=O)N[C@H](CC(=O)O)C(=O)N[C@H]1C(=O)N[C@H](CCCN=C(N)N)C(=O)N[C@@H]2CC[C@H](O)N(C2=O)[C@@H](CC(C)C)C(=O)N(C)[C@@H](Cc2ccccc2)C(=O)N[C@H](C(C)C)C(=O)O[C@@H]1C
REMARK SMILES IDX 30 1 31 2 29 3 32 5 35 6 37 7 34 8 38 9 33 10 39 11 36 12
REMARK SMILES IDX 40 14 41 15 42 16 43 17 44 18 45 19 46 20 47 21 48 22 49 23
REMARK SMILES IDX 50 24 51 25 52 26 56 27 53 28 55 29 54 30 57 31 58 32 59 33
REMARK SMILES IDX 60 35 61 36 62 37 63 38 64 39 65 40 66 41 67 42 68 43 21 45
REMARK SMILES IDX 20 46 18 47 19 48 17 50 16 52 14 53 15 54 9 56 8 57 6 58
REMARK SMILES IDX 7 59 5 61 4 62 3 63 2 64 1 65 10 66 11 67 12 68 13 69 22 71
REMARK SMILES IDX 23 72 24 73 25 74 26 75 27 76 28 77
REMARK H PARENT 31 4 36 13 59 34 20 49 16 55 8 60 13 70 27 78 27 79 28 80
REMARK H PARENT 28 81
REMARK Flexibility Score:  259.900
ROOT
ATOM      1  O   UNL     1      -4.220   9.858  -2.274  1.00  0.00    -0.273 OA
ATOM      2  N   UNL     1      -5.581  11.594  -1.669  1.00  0.00    -0.343 N 
ATOM      3  C   UNL     1      -4.456  11.066  -2.267  1.00  0.00     0.243 C 
ATOM      4  H   UNL     1      -5.750  12.592  -1.696  1.00  0.00     0.164 HD
ENDROOT
BRANCH   2   5
ATOM      5  C   UNL     1      -6.487  10.740  -0.908  1.00  0.00     0.171 C 
ATOM      6  C   UNL     1      -8.801  11.310   0.742  1.00  0.00     0.214 C 
ATOM      7  N   UNL     1      -7.492  11.255   1.349  1.00  0.00    -0.303 N 
ATOM      8  C   UNL     1      -8.940  10.404  -0.471  1.00  0.00     0.057 C 
ATOM      9  C   UNL     1      -6.340  11.038   0.612  1.00  0.00     0.247 C 
ATOM     10  C   UNL     1      -7.894  10.765  -1.503  1.00  0.00     0.040 C 
ATOM     11  O   UNL     1      -5.214  11.079   1.126  1.00  0.00    -0.272 OA
BRANCH   6  12
ATOM     12  O   UNL     1      -9.055  12.650   0.388  1.00  0.00    -0.373 OA
ATOM     13  H   UNL     1      -8.846  13.200   1.173  1.00  0.00     0.213 HD
ENDBRANCH   6  12
BRANCH   7  14
ATOM     14  C   UNL     1      -7.406  11.589   2.787  1.00  0.00     0.177 C 
BRANCH  14  15
ATOM     15  C   UNL     1      -6.979  13.036   3.101  1.00  0.00     0.038 C 
BRANCH  15  16
ATOM     16  C   UNL     1      -5.644  13.294   3.834  1.00  0.00    -0.015 C 
ATOM     17  C   UNL     1      -5.810  13.325   5.356  1.00  0.00     0.007 C 
ATOM     18  C   UNL     1      -5.058  14.639   3.386  1.00  0.00     0.007 C 
ENDBRANCH  15  16
ENDBRANCH  14  15
BRANCH  14  19
ATOM     19  C   UNL     1      -8.454  10.755   3.602  1.00  0.00     0.245 C 
ATOM     20  O   UNL     1      -8.279   9.526   3.647  1.00  0.00    -0.272 OA
BRANCH  19  21
ATOM     21  N   UNL     1      -9.598  11.293   4.165  1.00  0.00    -0.332 N 
ATOM     22  C   UNL     1     -10.900  11.359   3.526  1.00  0.00     0.147 C 
BRANCH  21  23
ATOM     23  C   UNL     1      -9.496  11.867   5.535  1.00  0.00     0.178 C 
BRANCH  23  24
ATOM     24  C   UNL     1     -10.222  13.214   5.727  1.00  0.00     0.070 C 
BRANCH  24  25
ATOM     25  C   UNL     1      -9.734  14.106   6.845  1.00  0.00    -0.045 A 
ATOM     26  C   UNL     1     -10.480  15.220   7.252  1.00  0.00     0.004 A 
ATOM     27  C   UNL     1      -8.519  13.830   7.491  1.00  0.00     0.004 A 
ATOM     28  C   UNL     1     -10.014  16.048   8.274  1.00  0.00     0.000 A 
ATOM     29  C   UNL     1      -8.056  14.659   8.514  1.00  0.00     0.000 A 
ATOM     30  C   UNL     1      -8.802  15.769   8.903  1.00  0.00     0.000 A 
ENDBRANCH  24  25
ENDBRANCH  23  24
BRANCH  23  31
ATOM     31  C   UNL     1      -9.755  10.823   6.647  1.00  0.00     0.243 C 
ATOM     32  O   UNL     1      -8.866  10.238   7.261  1.00  0.00    -0.273 OA
ATOM     33  N   UNL     1     -11.087  10.463   6.768  1.00  0.00    -0.341 N 
ATOM     34  H   UNL     1     -11.781  10.983   6.226  1.00  0.00     0.164 HD
BRANCH  33  35
ATOM     35  C   UNL     1     -11.550   9.407   7.672  1.00  0.00     0.194 C 
BRANCH  35  36
ATOM     36  C   UNL     1     -12.005   8.107   6.951  1.00  0.00     0.017 C 
ATOM     37  C   UNL     1     -10.915   7.022   7.013  1.00  0.00     0.010 C 
ATOM     38  C   UNL     1     -12.350   8.325   5.473  1.00  0.00     0.010 C 
ENDBRANCH  35  36
BRANCH  35  39
ATOM     39  C   UNL     1     -12.616   9.912   8.685  1.00  0.00     0.329 C 
ATOM     40  O   UNL     1     -13.723  10.327   8.365  1.00  0.00    -0.250 OA
BRANCH  39  41
ATOM     41  O   UNL     1     -12.213   9.759   9.983  1.00  0.00    -0.458 OA
BRANCH  41  42
ATOM     42  C   UNL     1     -13.107   9.020  10.849  1.00  0.00     0.205 CG0
ATOM     43  C   UNL     1     -12.849   7.535  10.606  1.00  0.00     0.056 C 
ATOM     44  G   UNL     1     -14.557   9.428  10.522  1.00  0.00     0.000 G0
ENDBRANCH  41  42
ENDBRANCH  39  41
ENDBRANCH  35  39
ENDBRANCH  33  35
ENDBRANCH  23  31
ENDBRANCH  21  23
ENDBRANCH  19  21
ENDBRANCH  14  19
ENDBRANCH   7  14
ENDBRANCH   2   5
BRANCH   3  45
ATOM     45  C   UNL     1      -3.531  12.087  -2.942  1.00  0.00     0.171 C 
BRANCH  45  46
ATOM     46  N   UNL     1      -2.718  11.323  -3.878  1.00  0.00    -0.342 N 
ATOM     47  C   UNL     1      -2.061  11.909  -4.932  1.00  0.00     0.247 C 
ATOM     48  O   UNL     1      -2.051  13.126  -5.120  1.00  0.00    -0.273 OA
ATOM     49  H   UNL     1      -2.653  10.318  -3.726  1.00  0.00     0.164 HD
BRANCH  47  50
ATOM     50  C   UNL     1      -1.357  10.931  -5.883  1.00  0.00     0.212 CG0
ATOM     51  G   UNL     1      -2.236  10.787  -7.141  1.00  0.00     0.000 G0
BRANCH  50  52
ATOM     52  N   UNL     1      -0.051  11.526  -6.157  1.00  0.00    -0.339 N 
ATOM     53  C   UNL     1       0.242  12.204  -7.314  1.00  0.00     0.243 C 
ATOM     54  O   UNL     1      -0.560  12.317  -8.237  1.00  0.00    -0.273 OA
ATOM     55  H   UNL     1       0.691  11.370  -5.477  1.00  0.00     0.164 HD
BRANCH  53  56
ATOM     56  C   UNL     1       1.710  12.667  -7.415  1.00  0.00     0.182 C 
BRANCH  56  57
ATOM     57  N   UNL     1       2.467  12.281  -6.220  1.00  0.00    -0.344 N 
ATOM     58  C   UNL     1       3.476  11.350  -6.257  1.00  0.00     0.220 C 
ATOM     59  O   UNL     1       3.765  10.725  -7.272  1.00  0.00    -0.275 OA
ATOM     60  H   UNL     1       2.329  12.845  -5.386  1.00  0.00     0.164 HD
BRANCH  58  61
ATOM     61  C   UNL     1       4.160  11.150  -4.917  1.00  0.00     0.100 C 
BRANCH  61  62
ATOM     62  C   UNL     1       3.193  11.092  -3.735  1.00  0.00     0.010 C 
BRANCH  62  63
ATOM     63  C   UNL     1       2.419   9.772  -3.622  1.00  0.00     0.000 C 
BRANCH  63  64
ATOM     64  C   UNL     1       2.901   8.857  -2.497  1.00  0.00    -0.003 C 
ATOM     65  C   UNL     1       3.936   9.550  -1.623  1.00  0.00     0.004 C 
ENDBRANCH  63  64
ENDBRANCH  62  63
ENDBRANCH  61  62
ENDBRANCH  58  61
ENDBRANCH  56  57
BRANCH  56  66
ATOM     66  C   UNL     1       1.806  14.165  -7.700  1.00  0.00     0.157 C 
BRANCH  66  67
ATOM     67  C   UNL     1       1.048  14.962  -6.679  1.00  0.00     0.305 C 
ATOM     68  O   UNL     1      -0.049  15.481  -6.821  1.00  0.00    -0.252 OA
BRANCH  67  69
ATOM     69  O   UNL     1       1.691  15.025  -5.498  1.00  0.00    -0.481 OA
ATOM     70  H   UNL     1       1.034  14.716  -4.838  1.00  0.00     0.296 HD
ENDBRANCH  67  69
ENDBRANCH  66  67
ENDBRANCH  56  66
ENDBRANCH  53  56
ENDBRANCH  50  52
ENDBRANCH  47  50
ENDBRANCH  45  46
BRANCH  45  71
ATOM     71  C   UNL     1      -2.669  12.801  -1.895  1.00  0.00     0.037 C 
BRANCH  71  72
ATOM     72  C   UNL     1      -2.812  14.323  -1.971  1.00  0.00     0.026 C 
BRANCH  72  73
ATOM     73  C   UNL     1      -3.215  14.915  -0.622  1.00  0.00     0.146 C 
BRANCH  73  74
ATOM     74  N   UNL     1      -4.476  14.298  -0.222  1.00  0.00    -0.254 NA
ATOM     75  C   UNL     1      -5.559  14.943  -0.453  1.00  0.00     0.185 C 
ATOM     76  N   UNL     1      -6.735  14.400  -0.097  1.00  0.00    -0.370 N 
ATOM     77  N   UNL     1      -5.719  16.148  -1.028  1.00  0.00    -0.370 N 
ATOM     78  H   UNL     1      -6.704  13.495   0.350  1.00  0.00     0.159 HD
ATOM     79  H   UNL     1      -7.604  14.903  -0.113  1.00  0.00     0.159 HD
ATOM     80  H   UNL     1      -4.920  16.673  -1.350  1.00  0.00     0.159 HD
ATOM     81  H   UNL     1      -6.631  16.505  -1.262  1.00  0.00     0.159 HD
ENDBRANCH  73  74
ENDBRANCH  72  73
ENDBRANCH  71  72
ENDBRANCH  45  71
ENDBRANCH   3  45
TORSDOF 20
ENDMDL
MODEL 6
REMARK VINA RESULT:    -6.767      1.767      3.942
REMARK INTER + INTRA:         -25.136
REMARK INTER:                 -20.756
REMARK INTRA:                  -4.380
REMARK UNBOUND:                -5.711
REMARK SMILES CCCCCC(=O)N[C@H](CC(=O)O)C(=O)N[C@H]1C(=O)N[C@H](CCCN=C(N)N)C(=O)N[C@@H]2CC[C@H](O)N(C2=O)[C@@H](CC(C)C)C(=O)N(C)[C@@H](Cc2ccccc2)C(=O)N[C@H](C(C)C)C(=O)O[C@@H]1C
REMARK SMILES IDX 30 1 31 2 29 3 32 5 35 6 37 7 34 8 38 9 33 10 39 11 36 12
REMARK SMILES IDX 40 14 41 15 42 16 43 17 44 18 45 19 46 20 47 21 48 22 49 23
REMARK SMILES IDX 50 24 51 25 52 26 56 27 53 28 55 29 54 30 57 31 58 32 59 33
REMARK SMILES IDX 60 35 61 36 62 37 63 38 64 39 65 40 66 41 67 42 68 43 21 45
REMARK SMILES IDX 20 46 18 47 19 48 17 50 16 52 14 53 15 54 9 56 8 57 6 58
REMARK SMILES IDX 7 59 5 61 4 62 3 63 2 64 1 65 10 66 11 67 12 68 13 69 22 71
REMARK SMILES IDX 23 72 24 73 25 74 26 75 27 76 28 77
REMARK H PARENT 31 4 36 13 59 34 20 49 16 55 8 60 13 70 27 78 27 79 28 80
REMARK H PARENT 28 81
REMARK Flexibility Score:  259.900
ROOT
ATOM      1  O   UNL     1      -2.056  15.284  -4.741  1.00  0.00    -0.273 OA
ATOM      2  N   UNL     1      -1.924  13.531  -3.279  1.00  0.00    -0.343 N 
ATOM      3  C   UNL     1      -1.507  14.241  -4.383  1.00  0.00     0.243 C 
ATOM      4  H   UNL     1      -1.439  12.685  -3.006  1.00  0.00     0.164 HD
ENDROOT
BRANCH   2   5
ATOM      5  C   UNL     1      -3.124  13.928  -2.550  1.00  0.00     0.171 C 
ATOM      6  C   UNL     1      -4.083  13.340   0.122  1.00  0.00     0.214 C 
ATOM      7  N   UNL     1      -4.471  12.486  -0.976  1.00  0.00    -0.303 N 
ATOM      8  C   UNL     1      -3.838  14.782  -0.295  1.00  0.00     0.057 C 
ATOM      9  C   UNL     1      -4.007  12.680  -2.267  1.00  0.00     0.247 C 
ATOM     10  C   UNL     1      -2.773  14.831  -1.368  1.00  0.00     0.040 C 
ATOM     11  O   UNL     1      -4.274  11.893  -3.185  1.00  0.00    -0.272 OA
BRANCH   6  12
ATOM     12  O   UNL     1      -2.924  12.793   0.706  1.00  0.00    -0.373 OA
ATOM     13  H   UNL     1      -3.123  12.643   1.655  1.00  0.00     0.213 HD
ENDBRANCH   6  12
BRANCH   7  14
ATOM     14  C   UNL     1      -5.275  11.291  -0.644  1.00  0.00     0.177 C 
BRANCH  14  15
ATOM     15  C   UNL     1      -4.568  10.251   0.248  1.00  0.00     0.038 C 
BRANCH  15  16
ATOM     16  C   UNL     1      -4.758   8.746  -0.040  1.00  0.00    -0.015 C 
ATOM     17  C   UNL     1      -5.731   8.491  -1.195  1.00  0.00     0.007 C 
ATOM     18  C   UNL     1      -5.302   8.042   1.210  1.00  0.00     0.007 C 
ENDBRANCH  15  16
ENDBRANCH  14  15
BRANCH  14  19
ATOM     19  C   UNL     1      -6.796  11.662  -0.573  1.00  0.00     0.245 C 
ATOM     20  O   UNL     1      -7.496  11.341  -1.548  1.00  0.00    -0.272 OA
BRANCH  19  21
ATOM     21  N   UNL     1      -7.361  12.410   0.445  1.00  0.00    -0.332 N 
ATOM     22  C   UNL     1      -7.427  13.860   0.487  1.00  0.00     0.147 C 
BRANCH  21  23
ATOM     23  C   UNL     1      -7.944  11.680   1.604  1.00  0.00     0.178 C 
BRANCH  23  24
ATOM     24  C   UNL     1      -6.909  11.131   2.608  1.00  0.00     0.070 C 
BRANCH  24  25
ATOM     25  C   UNL     1      -6.385  12.091   3.650  1.00  0.00    -0.045 A 
ATOM     26  C   UNL     1      -6.640  11.882   5.011  1.00  0.00     0.004 A 
ATOM     27  C   UNL     1      -5.635  13.213   3.265  1.00  0.00     0.004 A 
ATOM     28  C   UNL     1      -6.166  12.783   5.967  1.00  0.00     0.000 A 
ATOM     29  C   UNL     1      -5.161  14.113   4.221  1.00  0.00     0.000 A 
ATOM     30  C   UNL     1      -5.430  13.898   5.572  1.00  0.00     0.000 A 
ENDBRANCH  24  25
ENDBRANCH  23  24
BRANCH  23  31
ATOM     31  C   UNL     1      -9.142  12.421   2.244  1.00  0.00     0.243 C 
ATOM     32  O   UNL     1      -9.552  13.516   1.868  1.00  0.00    -0.273 OA
ATOM     33  N   UNL     1      -9.603  11.827   3.406  1.00  0.00    -0.341 N 
ATOM     34  H   UNL     1      -9.218  10.917   3.672  1.00  0.00     0.164 HD
BRANCH  33  35
ATOM     35  C   UNL     1     -10.650  12.418   4.244  1.00  0.00     0.194 C 
BRANCH  35  36
ATOM     36  C   UNL     1     -10.124  13.067   5.555  1.00  0.00     0.017 C 
ATOM     37  C   UNL     1     -11.267  13.317   6.554  1.00  0.00     0.010 C 
ATOM     38  C   UNL     1      -9.415  14.407   5.324  1.00  0.00     0.010 C 
ENDBRANCH  35  36
BRANCH  35  39
ATOM     39  C   UNL     1     -11.825  11.437   4.514  1.00  0.00     0.329 C 
ATOM     40  O   UNL     1     -12.997  11.682   4.255  1.00  0.00    -0.250 OA
BRANCH  39  41
ATOM     41  O   UNL     1     -11.395  10.230   4.994  1.00  0.00    -0.458 OA
BRANCH  41  42
ATOM     42  C   UNL     1     -12.394   9.404   5.638  1.00  0.00     0.205 CG0
ATOM     43  C   UNL     1     -12.279   9.643   7.142  1.00  0.00     0.056 C 
ATOM     44  G   UNL     1     -12.137   7.933   5.254  1.00  0.00     0.000 G0
ENDBRANCH  41  42
ENDBRANCH  39  41
ENDBRANCH  35  39
ENDBRANCH  33  35
ENDBRANCH  23  31
ENDBRANCH  21  23
ENDBRANCH  19  21
ENDBRANCH  14  19
ENDBRANCH   7  14
ENDBRANCH   2   5
BRANCH   3  45
ATOM     45  C   UNL     1      -0.298  13.655  -5.124  1.00  0.00     0.171 C 
BRANCH  45  46
ATOM     46  N   UNL     1      -0.156  14.448  -6.338  1.00  0.00    -0.342 N 
ATOM     47  C   UNL     1       0.901  15.298  -6.543  1.00  0.00     0.247 C 
ATOM     48  O   UNL     1       1.841  15.398  -5.753  1.00  0.00    -0.273 OA
ATOM     49  H   UNL     1      -0.884  14.353  -7.043  1.00  0.00     0.164 HD
BRANCH  47  50
ATOM     50  C   UNL     1       0.817  16.143  -7.822  1.00  0.00     0.212 CG0
ATOM     51  G   UNL     1       1.829  17.299  -7.685  1.00  0.00     0.000 G0
BRANCH  50  52
ATOM     52  N   UNL     1       1.131  15.228  -8.915  1.00  0.00    -0.339 N 
ATOM     53  C   UNL     1       2.408  15.008  -9.374  1.00  0.00     0.243 C 
ATOM     54  O   UNL     1       3.383  15.609  -8.932  1.00  0.00    -0.273 OA
ATOM     55  H   UNL     1       0.353  14.782  -9.397  1.00  0.00     0.164 HD
BRANCH  53  56
ATOM     56  C   UNL     1       2.483  14.066 -10.592  1.00  0.00     0.182 C 
BRANCH  56  57
ATOM     57  N   UNL     1       2.256  12.672 -10.195  1.00  0.00    -0.344 N 
ATOM     58  C   UNL     1       1.011  12.094 -10.217  1.00  0.00     0.220 C 
ATOM     59  O   UNL     1      -0.006  12.718 -10.498  1.00  0.00    -0.275 OA
ATOM     60  H   UNL     1       3.081  12.094 -10.054  1.00  0.00     0.164 HD
BRANCH  58  61
ATOM     61  C   UNL     1       1.021  10.628  -9.823  1.00  0.00     0.100 C 
BRANCH  61  62
ATOM     62  C   UNL     1      -0.041   9.791 -10.535  1.00  0.00     0.010 C 
BRANCH  62  63
ATOM     63  C   UNL     1      -1.013   9.074  -9.589  1.00  0.00     0.000 C 
BRANCH  63  64
ATOM     64  C   UNL     1      -1.393   9.883  -8.350  1.00  0.00    -0.003 C 
ATOM     65  C   UNL     1      -2.765  10.524  -8.504  1.00  0.00     0.004 C 
ENDBRANCH  63  64
ENDBRANCH  62  63
ENDBRANCH  61  62
ENDBRANCH  58  61
ENDBRANCH  56  57
BRANCH  56  66
ATOM     66  C   UNL     1       3.794  14.242 -11.357  1.00  0.00     0.157 C 
BRANCH  66  67
ATOM     67  C   UNL     1       3.571  14.946 -12.664  1.00  0.00     0.305 C 
ATOM     68  O   UNL     1       3.517  16.153 -12.846  1.00  0.00    -0.252 OA
BRANCH  67  69
ATOM     69  O   UNL     1       3.476  14.088 -13.698  1.00  0.00    -0.481 OA
ATOM     70  H   UNL     1       4.197  13.440 -13.551  1.00  0.00     0.296 HD
ENDBRANCH  67  69
ENDBRANCH  66  67
ENDBRANCH  56  66
ENDBRANCH  53  56
ENDBRANCH  50  52
ENDBRANCH  47  50
ENDBRANCH  45  46
BRANCH  45  71
ATOM     71  C   UNL     1      -0.532  12.174  -5.440  1.00  0.00     0.037 C 
BRANCH  71  72
ATOM     72  C   UNL     1       0.583  11.283  -4.887  1.00  0.00     0.026 C 
BRANCH  72  73
ATOM     73  C   UNL     1       0.100   9.850  -4.671  1.00  0.00     0.146 C 
BRANCH  73  74
ATOM     74  N   UNL     1      -1.180   9.910  -3.972  1.00  0.00    -0.254 NA
ATOM     75  C   UNL     1      -2.057   9.018  -4.251  1.00  0.00     0.185 C 
ATOM     76  N   UNL     1      -3.244   9.046  -3.623  1.00  0.00    -0.370 N 
ATOM     77  N   UNL     1      -1.977   7.997  -5.122  1.00  0.00    -0.370 N 
ATOM     78  H   UNL     1      -3.390   9.788  -2.954  1.00  0.00     0.159 HD
ATOM     79  H   UNL     1      -4.025   8.474  -3.891  1.00  0.00     0.159 HD
ATOM     80  H   UNL     1      -1.139   7.849  -5.664  1.00  0.00     0.159 HD
ATOM     81  H   UNL     1      -2.690   7.289  -5.173  1.00  0.00     0.159 HD
ENDBRANCH  73  74
ENDBRANCH  72  73
ENDBRANCH  71  72
ENDBRANCH  45  71
ENDBRANCH   3  45
TORSDOF 20
ENDMDL
MODEL 7
REMARK VINA RESULT:    -6.729      1.733      3.312
REMARK INTER + INTRA:         -25.028
REMARK INTER:                 -18.972
REMARK INTRA:                  -6.056
REMARK UNBOUND:                -5.711
REMARK SMILES CCCCCC(=O)N[C@H](CC(=O)O)C(=O)N[C@H]1C(=O)N[C@H](CCCN=C(N)N)C(=O)N[C@@H]2CC[C@H](O)N(C2=O)[C@@H](CC(C)C)C(=O)N(C)[C@@H](Cc2ccccc2)C(=O)N[C@H](C(C)C)C(=O)O[C@@H]1C
REMARK SMILES IDX 30 1 31 2 29 3 32 5 35 6 37 7 34 8 38 9 33 10 39 11 36 12
REMARK SMILES IDX 40 14 41 15 42 16 43 17 44 18 45 19 46 20 47 21 48 22 49 23
REMARK SMILES IDX 50 24 51 25 52 26 56 27 53 28 55 29 54 30 57 31 58 32 59 33
REMARK SMILES IDX 60 35 61 36 62 37 63 38 64 39 65 40 66 41 67 42 68 43 21 45
REMARK SMILES IDX 20 46 18 47 19 48 17 50 16 52 14 53 15 54 9 56 8 57 6 58
REMARK SMILES IDX 7 59 5 61 4 62 3 63 2 64 1 65 10 66 11 67 12 68 13 69 22 71
REMARK SMILES IDX 23 72 24 73 25 74 26 75 27 76 28 77
REMARK H PARENT 31 4 36 13 59 34 20 49 16 55 8 60 13 70 27 78 27 79 28 80
REMARK H PARENT 28 81
REMARK Flexibility Score:  259.900
ROOT
ATOM      1  O   UNL     1      -1.767  14.821  -4.787  1.00  0.00    -0.273 OA
ATOM      2  N   UNL     1      -1.906  13.150  -3.232  1.00  0.00    -0.343 N 
ATOM      3  C   UNL     1      -1.345  13.756  -4.335  1.00  0.00     0.243 C 
ATOM      4  H   UNL     1      -1.524  12.281  -2.879  1.00  0.00     0.164 HD
ENDROOT
BRANCH   2   5
ATOM      5  C   UNL     1      -3.113  13.695  -2.619  1.00  0.00     0.171 C 
ATOM      6  C   UNL     1      -4.173  13.575   0.077  1.00  0.00     0.214 C 
ATOM      7  N   UNL     1      -4.555  12.565  -0.882  1.00  0.00    -0.303 N 
ATOM      8  C   UNL     1      -3.867  14.922  -0.558  1.00  0.00     0.057 C 
ATOM      9  C   UNL     1      -4.047  12.534  -2.171  1.00  0.00     0.247 C 
ATOM     10  C   UNL     1      -2.768  14.767  -1.587  1.00  0.00     0.040 C 
ATOM     11  O   UNL     1      -4.312  11.617  -2.959  1.00  0.00    -0.272 OA
BRANCH   6  12
ATOM     12  O   UNL     1      -3.051  13.096   0.781  1.00  0.00    -0.373 OA
ATOM     13  H   UNL     1      -2.836  12.212   0.414  1.00  0.00     0.213 HD
ENDBRANCH   6  12
BRANCH   7  14
ATOM     14  C   UNL     1      -5.409  11.463  -0.391  1.00  0.00     0.177 C 
BRANCH  14  15
ATOM     15  C   UNL     1      -4.650  10.229   0.135  1.00  0.00     0.038 C 
BRANCH  15  16
ATOM     16  C   UNL     1      -4.896   8.850  -0.516  1.00  0.00    -0.015 C 
ATOM     17  C   UNL     1      -3.598   8.187  -0.989  1.00  0.00     0.007 C 
ATOM     18  C   UNL     1      -5.824   9.006  -1.727  1.00  0.00     0.007 C 
ENDBRANCH  15  16
ENDBRANCH  14  15
BRANCH  14  19
ATOM     19  C   UNL     1      -6.740  12.033   0.210  1.00  0.00     0.245 C 
ATOM     20  O   UNL     1      -7.473  12.673  -0.563  1.00  0.00    -0.272 OA
BRANCH  19  21
ATOM     21  N   UNL     1      -7.076  11.957   1.550  1.00  0.00    -0.332 N 
ATOM     22  C   UNL     1      -6.390  12.643   2.630  1.00  0.00     0.147 C 
BRANCH  21  23
ATOM     23  C   UNL     1      -8.229  11.095   1.931  1.00  0.00     0.178 C 
BRANCH  23  24
ATOM     24  C   UNL     1      -7.850   9.812   2.698  1.00  0.00     0.070 C 
BRANCH  24  25
ATOM     25  C   UNL     1      -7.714   8.542   1.890  1.00  0.00    -0.045 A 
ATOM     26  C   UNL     1      -8.505   8.326   0.754  1.00  0.00     0.004 A 
ATOM     27  C   UNL     1      -6.792   7.556   2.272  1.00  0.00     0.004 A 
ATOM     28  C   UNL     1      -8.385   7.143   0.023  1.00  0.00     0.000 A 
ATOM     29  C   UNL     1      -6.673   6.374   1.539  1.00  0.00     0.000 A 
ATOM     30  C   UNL     1      -7.472   6.167   0.417  1.00  0.00     0.000 A 
ENDBRANCH  24  25
ENDBRANCH  23  24
BRANCH  23  31
ATOM     31  C   UNL     1      -9.405  11.895   2.540  1.00  0.00     0.243 C 
ATOM     32  O   UNL     1      -9.906  12.887   2.016  1.00  0.00    -0.273 OA
ATOM     33  N   UNL     1      -9.729  11.506   3.829  1.00  0.00    -0.341 N 
ATOM     34  H   UNL     1      -9.273  10.676   4.215  1.00  0.00     0.164 HD
BRANCH  33  35
ATOM     35  C   UNL     1     -10.729  12.200   4.645  1.00  0.00     0.194 C 
BRANCH  35  36
ATOM     36  C   UNL     1     -10.126  13.118   5.745  1.00  0.00     0.017 C 
ATOM     37  C   UNL     1      -9.943  14.558   5.234  1.00  0.00     0.010 C 
ATOM     38  C   UNL     1      -8.762  12.636   6.254  1.00  0.00     0.010 C 
ENDBRANCH  35  36
BRANCH  35  39
ATOM     39  C   UNL     1     -11.805  11.236   5.220  1.00  0.00     0.329 C 
ATOM     40  O   UNL     1     -11.734  10.709   6.324  1.00  0.00    -0.250 OA
BRANCH  39  41
ATOM     41  O   UNL     1     -12.885  11.109   4.391  1.00  0.00    -0.458 OA
BRANCH  41  42
ATOM     42  C   UNL     1     -13.525   9.811   4.367  1.00  0.00     0.205 CG0
ATOM     43  C   UNL     1     -14.416   9.767   3.127  1.00  0.00     0.056 C 
ATOM     44  G   UNL     1     -14.324   9.632   5.673  1.00  0.00     0.000 G0
ENDBRANCH  41  42
ENDBRANCH  39  41
ENDBRANCH  35  39
ENDBRANCH  33  35
ENDBRANCH  23  31
ENDBRANCH  21  23
ENDBRANCH  19  21
ENDBRANCH  14  19
ENDBRANCH   7  14
ENDBRANCH   2   5
BRANCH   3  45
ATOM     45  C   UNL     1      -0.145  13.023  -4.949  1.00  0.00     0.171 C 
BRANCH  45  46
ATOM     46  N   UNL     1      -0.019  13.539  -6.305  1.00  0.00    -0.342 N 
ATOM     47  C   UNL     1       0.844  14.555  -6.629  1.00  0.00     0.247 C 
ATOM     48  O   UNL     1       1.625  15.053  -5.817  1.00  0.00    -0.273 OA
ATOM     49  H   UNL     1      -0.607  13.115  -7.021  1.00  0.00     0.164 HD
BRANCH  47  50
ATOM     50  C   UNL     1       0.750  15.051  -8.079  1.00  0.00     0.212 CG0
ATOM     51  G   UNL     1       1.201  16.525  -8.100  1.00  0.00     0.000 G0
BRANCH  50  52
ATOM     52  N   UNL     1       1.623  14.169  -8.850  1.00  0.00    -0.339 N 
ATOM     53  C   UNL     1       2.767  14.599  -9.477  1.00  0.00     0.243 C 
ATOM     54  O   UNL     1       3.117  15.776  -9.482  1.00  0.00    -0.273 OA
ATOM     55  H   UNL     1       1.327  13.203  -8.976  1.00  0.00     0.164 HD
BRANCH  53  56
ATOM     56  C   UNL     1       3.478  13.507 -10.302  1.00  0.00     0.182 C 
BRANCH  56  57
ATOM     57  N   UNL     1       4.022  12.460  -9.431  1.00  0.00    -0.344 N 
ATOM     58  C   UNL     1       3.574  11.163  -9.472  1.00  0.00     0.220 C 
ATOM     59  O   UNL     1       2.642  10.805 -10.183  1.00  0.00    -0.275 OA
ATOM     60  H   UNL     1       4.860  12.690  -8.903  1.00  0.00     0.164 HD
BRANCH  58  61
ATOM     61  C   UNL     1       4.320  10.239  -8.526  1.00  0.00     0.100 C 
BRANCH  61  62
ATOM     62  C   UNL     1       3.484   9.772  -7.334  1.00  0.00     0.010 C 
BRANCH  62  63
ATOM     63  C   UNL     1       3.048  10.901  -6.392  1.00  0.00     0.000 C 
BRANCH  63  64
ATOM     64  C   UNL     1       3.960  11.096  -5.182  1.00  0.00    -0.003 C 
ATOM     65  C   UNL     1       3.198  11.678  -4.001  1.00  0.00     0.004 C 
ENDBRANCH  63  64
ENDBRANCH  62  63
ENDBRANCH  61  62
ENDBRANCH  58  61
ENDBRANCH  56  57
BRANCH  56  66
ATOM     66  C   UNL     1       4.542  14.104 -11.221  1.00  0.00     0.157 C 
BRANCH  66  67
ATOM     67  C   UNL     1       5.828  14.341 -10.482  1.00  0.00     0.305 C 
ATOM     68  O   UNL     1       6.195  15.385  -9.966  1.00  0.00    -0.252 OA
BRANCH  67  69
ATOM     69  O   UNL     1       6.575  13.224 -10.384  1.00  0.00    -0.481 OA
ATOM     70  H   UNL     1       6.432  12.907  -9.467  1.00  0.00     0.296 HD
ENDBRANCH  67  69
ENDBRANCH  66  67
ENDBRANCH  56  66
ENDBRANCH  53  56
ENDBRANCH  50  52
ENDBRANCH  47  50
ENDBRANCH  45  46
BRANCH  45  71
ATOM     71  C   UNL     1      -0.383  11.509  -4.939  1.00  0.00     0.037 C 
BRANCH  71  72
ATOM     72  C   UNL     1      -0.758  10.976  -6.325  1.00  0.00     0.026 C 
BRANCH  72  73
ATOM     73  C   UNL     1      -0.880   9.454  -6.326  1.00  0.00     0.146 C 
BRANCH  73  74
ATOM     74  N   UNL     1      -2.012   9.095  -5.477  1.00  0.00    -0.254 NA
ATOM     75  C   UNL     1      -2.429   7.884  -5.515  1.00  0.00     0.185 C 
ATOM     76  N   UNL     1      -3.468   7.523  -4.744  1.00  0.00    -0.370 N 
ATOM     77  N   UNL     1      -1.969   6.854  -6.246  1.00  0.00    -0.370 N 
ATOM     78  H   UNL     1      -3.880   8.242  -4.167  1.00  0.00     0.159 HD
ATOM     79  H   UNL     1      -3.939   6.640  -4.828  1.00  0.00     0.159 HD
ATOM     80  H   UNL     1      -1.186   6.977  -6.871  1.00  0.00     0.159 HD
ATOM     81  H   UNL     1      -2.304   5.915  -6.107  1.00  0.00     0.159 HD
ENDBRANCH  73  74
ENDBRANCH  72  73
ENDBRANCH  71  72
ENDBRANCH  45  71
ENDBRANCH   3  45
TORSDOF 20
ENDMDL
MODEL 8
REMARK VINA RESULT:    -6.714     14.762     18.083
REMARK INTER + INTRA:         -24.986
REMARK INTER:                 -19.730
REMARK INTRA:                  -5.256
REMARK UNBOUND:                -5.711
REMARK SMILES CCCCCC(=O)N[C@H](CC(=O)O)C(=O)N[C@H]1C(=O)N[C@H](CCCN=C(N)N)C(=O)N[C@@H]2CC[C@H](O)N(C2=O)[C@@H](CC(C)C)C(=O)N(C)[C@@H](Cc2ccccc2)C(=O)N[C@H](C(C)C)C(=O)O[C@@H]1C
REMARK SMILES IDX 30 1 31 2 29 3 32 5 35 6 37 7 34 8 38 9 33 10 39 11 36 12
REMARK SMILES IDX 40 14 41 15 42 16 43 17 44 18 45 19 46 20 47 21 48 22 49 23
REMARK SMILES IDX 50 24 51 25 52 26 56 27 53 28 55 29 54 30 57 31 58 32 59 33
REMARK SMILES IDX 60 35 61 36 62 37 63 38 64 39 65 40 66 41 67 42 68 43 21 45
REMARK SMILES IDX 20 46 18 47 19 48 17 50 16 52 14 53 15 54 9 56 8 57 6 58
REMARK SMILES IDX 7 59 5 61 4 62 3 63 2 64 1 65 10 66 11 67 12 68 13 69 22 71
REMARK SMILES IDX 23 72 24 73 25 74 26 75 27 76 28 77
REMARK H PARENT 31 4 36 13 59 34 20 49 16 55 8 60 13 70 27 78 27 79 28 80
REMARK H PARENT 28 81
REMARK Flexibility Score:  259.900
ROOT
ATOM      1  O   UNL     1      -5.444  -5.387   1.656  1.00  0.00    -0.273 OA
ATOM      2  N   UNL     1      -6.335  -3.283   1.553  1.00  0.00    -0.343 N 
ATOM      3  C   UNL     1      -5.801  -4.419   0.984  1.00  0.00     0.243 C 
ATOM      4  H   UNL     1      -6.630  -2.512   0.967  1.00  0.00     0.164 HD
ENDROOT
BRANCH   2   5
ATOM      5  C   UNL     1      -6.389  -3.134   3.003  1.00  0.00     0.171 C 
ATOM      6  C   UNL     1      -7.417  -1.041   4.726  1.00  0.00     0.214 C 
ATOM      7  N   UNL     1      -6.035  -1.002   4.308  1.00  0.00    -0.303 N 
ATOM      8  C   UNL     1      -7.973  -2.452   4.833  1.00  0.00     0.057 C 
ATOM      9  C   UNL     1      -5.493  -1.941   3.445  1.00  0.00     0.247 C 
ATOM     10  C   UNL     1      -7.832  -3.161   3.503  1.00  0.00     0.040 C 
ATOM     11  O   UNL     1      -4.333  -1.852   3.023  1.00  0.00    -0.272 OA
BRANCH   6  12
ATOM     12  O   UNL     1      -8.167  -0.285   3.805  1.00  0.00    -0.373 OA
ATOM     13  H   UNL     1      -9.105  -0.336   4.087  1.00  0.00     0.213 HD
ENDBRANCH   6  12
BRANCH   7  14
ATOM     14  C   UNL     1      -5.242   0.175   4.721  1.00  0.00     0.177 C 
BRANCH  14  15
ATOM     15  C   UNL     1      -5.617   1.497   4.023  1.00  0.00     0.038 C 
BRANCH  15  16
ATOM     16  C   UNL     1      -5.285   1.687   2.526  1.00  0.00    -0.015 C 
ATOM     17  C   UNL     1      -3.790   1.525   2.234  1.00  0.00     0.007 C 
ATOM     18  C   UNL     1      -5.714   3.089   2.074  1.00  0.00     0.007 C 
ENDBRANCH  15  16
ENDBRANCH  14  15
BRANCH  14  19
ATOM     19  C   UNL     1      -4.801   0.034   6.219  1.00  0.00     0.245 C 
ATOM     20  O   UNL     1      -4.862  -1.103   6.715  1.00  0.00    -0.272 OA
BRANCH  19  21
ATOM     21  N   UNL     1      -4.465   1.105   7.028  1.00  0.00    -0.332 N 
ATOM     22  C   UNL     1      -5.387   1.850   7.866  1.00  0.00     0.147 C 
BRANCH  21  23
ATOM     23  C   UNL     1      -3.043   1.548   7.040  1.00  0.00     0.178 C 
BRANCH  23  24
ATOM     24  C   UNL     1      -2.332   1.475   5.673  1.00  0.00     0.070 C 
BRANCH  24  25
ATOM     25  C   UNL     1      -1.186   0.499   5.544  1.00  0.00    -0.045 A 
ATOM     26  C   UNL     1      -0.214   0.397   6.548  1.00  0.00     0.004 A 
ATOM     27  C   UNL     1      -1.078  -0.319   4.410  1.00  0.00     0.004 A 
ATOM     28  C   UNL     1       0.851  -0.496   6.413  1.00  0.00     0.000 A 
ATOM     29  C   UNL     1      -0.013  -1.212   4.278  1.00  0.00     0.000 A 
ATOM     30  C   UNL     1       0.952  -1.297   5.279  1.00  0.00     0.000 A 
ENDBRANCH  24  25
ENDBRANCH  23  24
BRANCH  23  31
ATOM     31  C   UNL     1      -2.829   2.870   7.815  1.00  0.00     0.243 C 
ATOM     32  O   UNL     1      -3.054   3.984   7.349  1.00  0.00    -0.273 OA
ATOM     33  N   UNL     1      -2.182   2.702   9.028  1.00  0.00    -0.341 N 
ATOM     34  H   UNL     1      -2.016   1.749   9.361  1.00  0.00     0.164 HD
BRANCH  33  35
ATOM     35  C   UNL     1      -1.770   3.823   9.876  1.00  0.00     0.194 C 
BRANCH  35  36
ATOM     36  C   UNL     1      -0.231   4.037   9.942  1.00  0.00     0.017 C 
ATOM     37  C   UNL     1       0.505   2.718  10.235  1.00  0.00     0.010 C 
ATOM     38  C   UNL     1       0.193   5.047  11.016  1.00  0.00     0.010 C 
ENDBRANCH  35  36
BRANCH  35  39
ATOM     39  C   UNL     1      -2.410   3.770  11.291  1.00  0.00     0.329 C 
ATOM     40  O   UNL     1      -2.197   2.880  12.107  1.00  0.00    -0.250 OA
BRANCH  39  41
ATOM     41  O   UNL     1      -3.171   4.873  11.560  1.00  0.00    -0.458 OA
BRANCH  41  42
ATOM     42  C   UNL     1      -3.216   5.300  12.942  1.00  0.00     0.205 CG0
ATOM     43  C   UNL     1      -2.808   6.772  12.976  1.00  0.00     0.056 C 
ATOM     44  G   UNL     1      -2.267   4.406  13.764  1.00  0.00     0.000 G0
ENDBRANCH  41  42
ENDBRANCH  39  41
ENDBRANCH  35  39
ENDBRANCH  33  35
ENDBRANCH  23  31
ENDBRANCH  21  23
ENDBRANCH  19  21
ENDBRANCH  14  19
ENDBRANCH   7  14
ENDBRANCH   2   5
BRANCH   3  45
ATOM     45  C   UNL     1      -5.702  -4.402  -0.548  1.00  0.00     0.171 C 
BRANCH  45  46
ATOM     46  N   UNL     1      -6.392  -5.603  -1.000  1.00  0.00    -0.342 N 
ATOM     47  C   UNL     1      -7.736  -5.621  -1.273  1.00  0.00     0.247 C 
ATOM     48  O   UNL     1      -8.441  -4.612  -1.226  1.00  0.00    -0.273 OA
ATOM     49  H   UNL     1      -5.834  -6.448  -1.107  1.00  0.00     0.164 HD
BRANCH  47  50
ATOM     50  C   UNL     1      -8.312  -7.002  -1.616  1.00  0.00     0.212 CG0
ATOM     51  G   UNL     1      -9.553  -6.783  -2.504  1.00  0.00     0.000 G0
BRANCH  50  52
ATOM     52  N   UNL     1      -7.234  -7.715  -2.296  1.00  0.00    -0.339 N 
ATOM     53  C   UNL     1      -6.934  -7.542  -3.625  1.00  0.00     0.243 C 
ATOM     54  O   UNL     1      -7.589  -6.809  -4.362  1.00  0.00    -0.273 OA
ATOM     55  H   UNL     1      -6.725  -8.420  -1.766  1.00  0.00     0.164 HD
BRANCH  53  56
ATOM     56  C   UNL     1      -5.813  -8.466  -4.141  1.00  0.00     0.182 C 
BRANCH  56  57
ATOM     57  N   UNL     1      -4.621  -7.694  -4.507  1.00  0.00    -0.344 N 
ATOM     58  C   UNL     1      -3.556  -7.536  -3.653  1.00  0.00     0.220 C 
ATOM     59  O   UNL     1      -3.557  -7.965  -2.505  1.00  0.00    -0.275 OA
ATOM     60  H   UNL     1      -4.536  -7.411  -5.479  1.00  0.00     0.164 HD
BRANCH  58  61
ATOM     61  C   UNL     1      -2.409  -6.750  -4.262  1.00  0.00     0.100 C 
BRANCH  61  62
ATOM     62  C   UNL     1      -1.679  -7.493  -5.381  1.00  0.00     0.010 C 
BRANCH  62  63
ATOM     63  C   UNL     1      -0.180  -7.695  -5.125  1.00  0.00     0.000 C 
BRANCH  63  64
ATOM     64  C   UNL     1       0.635  -6.403  -5.120  1.00  0.00    -0.003 C 
ATOM     65  C   UNL     1       0.211  -5.475  -6.249  1.00  0.00     0.004 C 
ENDBRANCH  63  64
ENDBRANCH  62  63
ENDBRANCH  61  62
ENDBRANCH  58  61
ENDBRANCH  56  57
BRANCH  56  66
ATOM     66  C   UNL     1      -6.299  -9.353  -5.286  1.00  0.00     0.157 C 
BRANCH  66  67
ATOM     67  C   UNL     1      -5.320  -9.357  -6.425  1.00  0.00     0.305 C 
ATOM     68  O   UNL     1      -5.332  -8.626  -7.404  1.00  0.00    -0.252 OA
BRANCH  67  69
ATOM     69  O   UNL     1      -4.334 -10.256  -6.248  1.00  0.00    -0.481 OA
ATOM     70  H   UNL     1      -3.506  -9.751  -6.393  1.00  0.00     0.296 HD
ENDBRANCH  67  69
ENDBRANCH  66  67
ENDBRANCH  56  66
ENDBRANCH  53  56
ENDBRANCH  50  52
ENDBRANCH  47  50
ENDBRANCH  45  46
BRANCH  45  71
ATOM     71  C   UNL     1      -4.233  -4.394  -0.987  1.00  0.00     0.037 C 
BRANCH  71  72
ATOM     72  C   UNL     1      -3.932  -3.258  -1.967  1.00  0.00     0.026 C 
BRANCH  72  73
ATOM     73  C   UNL     1      -4.517  -3.540  -3.350  1.00  0.00     0.146 C 
BRANCH  73  74
ATOM     74  N   UNL     1      -5.313  -2.382  -3.743  1.00  0.00    -0.254 NA
ATOM     75  C   UNL     1      -6.551  -2.571  -4.016  1.00  0.00     0.185 C 
ATOM     76  N   UNL     1      -7.310  -1.524  -4.380  1.00  0.00    -0.370 N 
ATOM     77  N   UNL     1      -7.256  -3.716  -3.996  1.00  0.00    -0.370 N 
ATOM     78  H   UNL     1      -6.855  -0.624  -4.429  1.00  0.00     0.159 HD
ATOM     79  H   UNL     1      -8.241  -1.616  -4.746  1.00  0.00     0.159 HD
ATOM     80  H   UNL     1      -6.815  -4.585  -3.736  1.00  0.00     0.159 HD
ATOM     81  H   UNL     1      -8.255  -3.723  -4.119  1.00  0.00     0.159 HD
ENDBRANCH  73  74
ENDBRANCH  72  73
ENDBRANCH  71  72
ENDBRANCH  45  71
ENDBRANCH   3  45
TORSDOF 20
ENDMDL
MODEL 9
REMARK VINA RESULT:    -6.679      1.828      2.747
REMARK INTER + INTRA:         -24.883
REMARK INTER:                 -19.555
REMARK INTRA:                  -5.328
REMARK UNBOUND:                -5.711
REMARK SMILES CCCCCC(=O)N[C@H](CC(=O)O)C(=O)N[C@H]1C(=O)N[C@H](CCCN=C(N)N)C(=O)N[C@@H]2CC[C@H](O)N(C2=O)[C@@H](CC(C)C)C(=O)N(C)[C@@H](Cc2ccccc2)C(=O)N[C@H](C(C)C)C(=O)O[C@@H]1C
REMARK SMILES IDX 30 1 31 2 29 3 32 5 35 6 37 7 34 8 38 9 33 10 39 11 36 12
REMARK SMILES IDX 40 14 41 15 42 16 43 17 44 18 45 19 46 20 47 21 48 22 49 23
REMARK SMILES IDX 50 24 51 25 52 26 56 27 53 28 55 29 54 30 57 31 58 32 59 33
REMARK SMILES IDX 60 35 61 36 62 37 63 38 64 39 65 40 66 41 67 42 68 43 21 45
REMARK SMILES IDX 20 46 18 47 19 48 17 50 16 52 14 53 15 54 9 56 8 57 6 58
REMARK SMILES IDX 7 59 5 61 4 62 3 63 2 64 1 65 10 66 11 67 12 68 13 69 22 71
REMARK SMILES IDX 23 72 24 73 25 74 26 75 27 76 28 77
REMARK H PARENT 31 4 36 13 59 34 20 49 16 55 8 60 13 70 27 78 27 79 28 80
REMARK H PARENT 28 81
REMARK Flexibility Score:  259.900
ROOT
ATOM      1  O   UNL     1      -1.970  14.270  -4.837  1.00  0.00    -0.273 OA
ATOM      2  N   UNL     1      -2.114  12.878  -3.027  1.00  0.00    -0.343 N 
ATOM      3  C   UNL     1      -1.571  13.275  -4.230  1.00  0.00     0.243 C 
ATOM      4  H   UNL     1      -1.751  12.063  -2.549  1.00  0.00     0.164 HD
ENDROOT
BRANCH   2   5
ATOM      5  C   UNL     1      -3.279  13.563  -2.477  1.00  0.00     0.171 C 
ATOM      6  C   UNL     1      -4.356  13.760   0.207  1.00  0.00     0.214 C 
ATOM      7  N   UNL     1      -4.809  12.701  -0.664  1.00  0.00    -0.303 N 
ATOM      8  C   UNL     1      -3.947  15.020  -0.540  1.00  0.00     0.057 C 
ATOM      9  C   UNL     1      -4.299  12.519  -1.939  1.00  0.00     0.247 C 
ATOM     10  C   UNL     1      -2.859  14.693  -1.539  1.00  0.00     0.040 C 
ATOM     11  O   UNL     1      -4.629  11.558  -2.647  1.00  0.00    -0.272 OA
BRANCH   6  12
ATOM     12  O   UNL     1      -3.276  13.263   0.963  1.00  0.00    -0.373 OA
ATOM     13  H   UNL     1      -3.233  13.794   1.787  1.00  0.00     0.213 HD
ENDBRANCH   6  12
BRANCH   7  14
ATOM     14  C   UNL     1      -5.745  11.713  -0.087  1.00  0.00     0.177 C 
BRANCH  14  15
ATOM     15  C   UNL     1      -5.083  10.544   0.668  1.00  0.00     0.038 C 
BRANCH  15  16
ATOM     16  C   UNL     1      -4.668   9.274  -0.107  1.00  0.00    -0.015 C 
ATOM     17  C   UNL     1      -5.827   8.673  -0.907  1.00  0.00     0.007 C 
ATOM     18  C   UNL     1      -4.159   8.211   0.874  1.00  0.00     0.007 C 
ENDBRANCH  15  16
ENDBRANCH  14  15
BRANCH  14  19
ATOM     19  C   UNL     1      -7.089  12.410   0.320  1.00  0.00     0.245 C 
ATOM     20  O   UNL     1      -7.828  12.784  -0.606  1.00  0.00    -0.272 OA
BRANCH  19  21
ATOM     21  N   UNL     1      -7.431  12.724   1.623  1.00  0.00    -0.332 N 
ATOM     22  C   UNL     1      -6.828  13.776   2.423  1.00  0.00     0.147 C 
BRANCH  21  23
ATOM     23  C   UNL     1      -8.498  11.916   2.276  1.00  0.00     0.178 C 
BRANCH  23  24
ATOM     24  C   UNL     1      -7.994  10.667   3.027  1.00  0.00     0.070 C 
BRANCH  24  25
ATOM     25  C   UNL     1      -8.129   9.338   2.321  1.00  0.00    -0.045 A 
ATOM     26  C   UNL     1      -7.398   8.222   2.746  1.00  0.00     0.004 A 
ATOM     27  C   UNL     1      -8.990   9.206   1.221  1.00  0.00     0.004 A 
ATOM     28  C   UNL     1      -7.516   7.001   2.077  1.00  0.00     0.000 A 
ATOM     29  C   UNL     1      -9.108   7.986   0.554  1.00  0.00     0.000 A 
ATOM     30  C   UNL     1      -8.368   6.885   0.981  1.00  0.00     0.000 A 
ENDBRANCH  24  25
ENDBRANCH  23  24
BRANCH  23  31
ATOM     31  C   UNL     1      -9.515  12.780   3.059  1.00  0.00     0.243 C 
ATOM     32  O   UNL     1     -10.334  13.527   2.529  1.00  0.00    -0.273 OA
ATOM     33  N   UNL     1      -9.302  12.782   4.427  1.00  0.00    -0.341 N 
ATOM     34  H   UNL     1      -8.602  12.142   4.810  1.00  0.00     0.164 HD
BRANCH  33  35
ATOM     35  C   UNL     1     -10.068  13.621   5.354  1.00  0.00     0.194 C 
BRANCH  35  36
ATOM     36  C   UNL     1      -9.212  14.270   6.478  1.00  0.00     0.017 C 
ATOM     37  C   UNL     1      -8.731  13.218   7.493  1.00  0.00     0.010 C 
ATOM     38  C   UNL     1      -9.964  15.353   7.261  1.00  0.00     0.010 C 
ENDBRANCH  35  36
BRANCH  35  39
ATOM     39  C   UNL     1     -11.318  12.894   5.923  1.00  0.00     0.329 C 
ATOM     40  O   UNL     1     -12.183  13.442   6.597  1.00  0.00    -0.250 OA
BRANCH  39  41
ATOM     41  O   UNL     1     -11.393  11.591   5.516  1.00  0.00    -0.458 OA
BRANCH  41  42
ATOM     42  C   UNL     1     -11.309  10.588   6.557  1.00  0.00     0.205 CG0
ATOM     43  C   UNL     1      -9.900  10.002   6.512  1.00  0.00     0.056 C 
ATOM     44  G   UNL     1     -12.398   9.526   6.305  1.00  0.00     0.000 G0
ENDBRANCH  41  42
ENDBRANCH  39  41
ENDBRANCH  35  39
ENDBRANCH  33  35
ENDBRANCH  23  31
ENDBRANCH  21  23
ENDBRANCH  19  21
ENDBRANCH  14  19
ENDBRANCH   7  14
ENDBRANCH   2   5
BRANCH   3  45
ATOM     45  C   UNL     1      -0.419  12.404  -4.750  1.00  0.00     0.171 C 
BRANCH  45  46
ATOM     46  N   UNL     1       0.301  13.234  -5.706  1.00  0.00    -0.342 N 
ATOM     47  C   UNL     1       1.671  13.239  -5.792  1.00  0.00     0.247 C 
ATOM     48  O   UNL     1       2.385  12.493  -5.120  1.00  0.00    -0.273 OA
ATOM     49  H   UNL     1      -0.254  13.826  -6.321  1.00  0.00     0.164 HD
BRANCH  47  50
ATOM     50  C   UNL     1       2.258  14.267  -6.770  1.00  0.00     0.212 CG0
ATOM     51  G   UNL     1       3.794  14.168  -6.685  1.00  0.00     0.000 G0
BRANCH  50  52
ATOM     52  N   UNL     1       1.728  13.903  -8.081  1.00  0.00    -0.339 N 
ATOM     53  C   UNL     1       2.509  13.434  -9.109  1.00  0.00     0.243 C 
ATOM     54  O   UNL     1       3.730  13.334  -9.019  1.00  0.00    -0.273 OA
ATOM     55  H   UNL     1       0.738  14.070  -8.253  1.00  0.00     0.164 HD
BRANCH  53  56
ATOM     56  C   UNL     1       1.741  13.200 -10.425  1.00  0.00     0.182 C 
BRANCH  56  57
ATOM     57  N   UNL     1       2.479  13.743 -11.569  1.00  0.00    -0.344 N 
ATOM     58  C   UNL     1       3.307  12.969 -12.346  1.00  0.00     0.220 C 
ATOM     59  O   UNL     1       3.544  11.793 -12.094  1.00  0.00    -0.275 OA
ATOM     60  H   UNL     1       2.234  14.682 -11.872  1.00  0.00     0.164 HD
BRANCH  58  61
ATOM     61  C   UNL     1       3.921  13.726 -13.509  1.00  0.00     0.100 C 
BRANCH  61  62
ATOM     62  C   UNL     1       5.249  14.404 -13.171  1.00  0.00     0.010 C 
BRANCH  62  63
ATOM     63  C   UNL     1       5.401  15.813 -13.758  1.00  0.00     0.000 C 
BRANCH  63  64
ATOM     64  C   UNL     1       4.389  16.150 -14.851  1.00  0.00    -0.003 C 
ATOM     65  C   UNL     1       4.345  17.646 -15.125  1.00  0.00     0.004 C 
ENDBRANCH  63  64
ENDBRANCH  62  63
ENDBRANCH  61  62
ENDBRANCH  58  61
ENDBRANCH  56  57
BRANCH  56  66
ATOM     66  C   UNL     1       0.316  13.746 -10.346  1.00  0.00     0.157 C 
BRANCH  66  67
ATOM     67  C   UNL     1       0.261  15.185 -10.770  1.00  0.00     0.305 C 
ATOM     68  O   UNL     1       0.939  16.103 -10.335  1.00  0.00    -0.252 OA
BRANCH  67  69
ATOM     69  O   UNL     1      -0.619  15.391 -11.768  1.00  0.00    -0.481 OA
ATOM     70  H   UNL     1      -1.390  15.818 -11.338  1.00  0.00     0.296 HD
ENDBRANCH  67  69
ENDBRANCH  66  67
ENDBRANCH  56  66
ENDBRANCH  53  56
ENDBRANCH  50  52
ENDBRANCH  47  50
ENDBRANCH  45  46
BRANCH  45  71
ATOM     71  C   UNL     1      -0.967  11.131  -5.405  1.00  0.00     0.037 C 
BRANCH  71  72
ATOM     72  C   UNL     1      -0.854   9.915  -4.483  1.00  0.00     0.026 C 
BRANCH  72  73
ATOM     73  C   UNL     1       0.507   9.861  -3.791  1.00  0.00     0.146 C 
BRANCH  73  74
ATOM     74  N   UNL     1       1.428   9.147  -4.669  1.00  0.00    -0.254 NA
ATOM     75  C   UNL     1       2.684   9.256  -4.437  1.00  0.00     0.185 C 
ATOM     76  N   UNL     1       3.556   8.610  -5.227  1.00  0.00    -0.370 N 
ATOM     77  N   UNL     1       3.307   9.954  -3.471  1.00  0.00    -0.370 N 
ATOM     78  H   UNL     1       3.170   8.065  -5.985  1.00  0.00     0.159 HD
ATOM     79  H   UNL     1       4.549   8.762  -5.197  1.00  0.00     0.159 HD
ATOM     80  H   UNL     1       2.776  10.487  -2.799  1.00  0.00     0.159 HD
ATOM     81  H   UNL     1       4.298   9.871  -3.315  1.00  0.00     0.159 HD
ENDBRANCH  73  74
ENDBRANCH  72  73
ENDBRANCH  71  72
ENDBRANCH  45  71
ENDBRANCH   3  45
TORSDOF 20
ENDMDL
MODEL 10
REMARK VINA RESULT:    -6.592      5.367      8.393
REMARK INTER + INTRA:         -24.634
REMARK INTER:                 -18.648
REMARK INTRA:                  -5.986
REMARK UNBOUND:                -5.711
REMARK SMILES CCCCCC(=O)N[C@H](CC(=O)O)C(=O)N[C@H]1C(=O)N[C@H](CCCN=C(N)N)C(=O)N[C@@H]2CC[C@H](O)N(C2=O)[C@@H](CC(C)C)C(=O)N(C)[C@@H](Cc2ccccc2)C(=O)N[C@H](C(C)C)C(=O)O[C@@H]1C
REMARK SMILES IDX 30 1 31 2 29 3 32 5 35 6 37 7 34 8 38 9 33 10 39 11 36 12
REMARK SMILES IDX 40 14 41 15 42 16 43 17 44 18 45 19 46 20 47 21 48 22 49 23
REMARK SMILES IDX 50 24 51 25 52 26 56 27 53 28 55 29 54 30 57 31 58 32 59 33
REMARK SMILES IDX 60 35 61 36 62 37 63 38 64 39 65 40 66 41 67 42 68 43 21 45
REMARK SMILES IDX 20 46 18 47 19 48 17 50 16 52 14 53 15 54 9 56 8 57 6 58
REMARK SMILES IDX 7 59 5 61 4 62 3 63 2 64 1 65 10 66 11 67 12 68 13 69 22 71
REMARK SMILES IDX 23 72 24 73 25 74 26 75 27 76 28 77
REMARK H PARENT 31 4 36 13 59 34 20 49 16 55 8 60 13 70 27 78 27 79 28 80
REMARK H PARENT 28 81
REMARK Flexibility Score:  259.900
ROOT
ATOM      1  O   UNL     1      -3.914   7.155  -4.339  1.00  0.00    -0.273 OA
ATOM      2  N   UNL     1      -5.501   6.938  -2.707  1.00  0.00    -0.343 N 
ATOM      3  C   UNL     1      -4.892   6.561  -3.885  1.00  0.00     0.243 C 
ATOM      4  H   UNL     1      -6.295   6.417  -2.356  1.00  0.00     0.164 HD
ENDROOT
BRANCH   2   5
ATOM      5  C   UNL     1      -5.077   8.144  -2.005  1.00  0.00     0.171 C 
ATOM      6  C   UNL     1      -5.505   9.095   0.700  1.00  0.00     0.214 C 
ATOM      7  N   UNL     1      -6.436   9.468  -0.339  1.00  0.00    -0.303 N 
ATOM      8  C   UNL     1      -4.089   8.874   0.190  1.00  0.00     0.057 C 
ATOM      9  C   UNL     1      -6.319   9.007  -1.641  1.00  0.00     0.247 C 
ATOM     10  C   UNL     1      -4.093   7.809  -0.885  1.00  0.00     0.040 C 
ATOM     11  O   UNL     1      -7.168   9.260  -2.505  1.00  0.00    -0.272 OA
BRANCH   6  12
ATOM     12  O   UNL     1      -5.993   7.927   1.318  1.00  0.00    -0.373 OA
ATOM     13  H   UNL     1      -6.471   7.417   0.629  1.00  0.00     0.213 HD
ENDBRANCH   6  12
BRANCH   7  14
ATOM     14  C   UNL     1      -7.620  10.252   0.071  1.00  0.00     0.177 C 
BRANCH  14  15
ATOM     15  C   UNL     1      -8.571   9.540   1.052  1.00  0.00     0.038 C 
BRANCH  15  16
ATOM     16  C   UNL     1      -9.992  10.103   1.278  1.00  0.00    -0.015 C 
ATOM     17  C   UNL     1     -10.209  10.581   2.716  1.00  0.00     0.007 C 
ATOM     18  C   UNL     1     -11.034   9.020   0.970  1.00  0.00     0.007 C 
ENDBRANCH  15  16
ENDBRANCH  14  15
BRANCH  14  19
ATOM     19  C   UNL     1      -7.279  11.782   0.088  1.00  0.00     0.245 C 
ATOM     20  O   UNL     1      -6.975  12.300  -1.000  1.00  0.00    -0.272 OA
BRANCH  19  21
ATOM     21  N   UNL     1      -7.191  12.540   1.242  1.00  0.00    -0.332 N 
ATOM     22  C   UNL     1      -8.184  13.494   1.702  1.00  0.00     0.147 C 
BRANCH  21  23
ATOM     23  C   UNL     1      -5.975  12.382   2.087  1.00  0.00     0.178 C 
BRANCH  23  24
ATOM     24  C   UNL     1      -4.955  13.534   1.973  1.00  0.00     0.070 C 
BRANCH  24  25
ATOM     25  C   UNL     1      -4.258  13.706   0.643  1.00  0.00    -0.045 A 
ATOM     26  C   UNL     1      -4.419  14.880  -0.104  1.00  0.00     0.004 A 
ATOM     27  C   UNL     1      -3.441  12.685   0.135  1.00  0.00     0.004 A 
ATOM     28  C   UNL     1      -3.785  15.025  -1.340  1.00  0.00     0.000 A 
ATOM     29  C   UNL     1      -2.807  12.832  -1.100  1.00  0.00     0.000 A 
ATOM     30  C   UNL     1      -2.982  14.001  -1.838  1.00  0.00     0.000 A 
ENDBRANCH  24  25
ENDBRANCH  23  24
BRANCH  23  31
ATOM     31  C   UNL     1      -6.299  11.940   3.534  1.00  0.00     0.243 C 
ATOM     32  O   UNL     1      -6.703  10.820   3.836  1.00  0.00    -0.273 OA
ATOM     33  N   UNL     1      -6.271  12.979   4.449  1.00  0.00    -0.341 N 
ATOM     34  H   UNL     1      -5.931  13.892   4.137  1.00  0.00     0.164 HD
BRANCH  33  35
ATOM     35  C   UNL     1      -6.659  12.818   5.853  1.00  0.00     0.194 C 
BRANCH  35  36
ATOM     36  C   UNL     1      -8.126  13.234   6.158  1.00  0.00     0.017 C 
ATOM     37  C   UNL     1      -9.069  12.019   6.131  1.00  0.00     0.010 C 
ATOM     38  C   UNL     1      -8.679  14.267   5.169  1.00  0.00     0.010 C 
ENDBRANCH  35  36
BRANCH  35  39
ATOM     39  C   UNL     1      -5.651  13.483   6.832  1.00  0.00     0.329 C 
ATOM     40  O   UNL     1      -4.775  14.267   6.487  1.00  0.00    -0.250 OA
BRANCH  39  41
ATOM     41  O   UNL     1      -5.906  13.162   8.137  1.00  0.00    -0.458 OA
BRANCH  41  42
ATOM     42  C   UNL     1      -6.160  14.272   9.032  1.00  0.00     0.205 CG0
ATOM     43  C   UNL     1      -5.066  14.255  10.097  1.00  0.00     0.056 C 
ATOM     44  G   UNL     1      -7.570  14.107   9.631  1.00  0.00     0.000 G0
ENDBRANCH  41  42
ENDBRANCH  39  41
ENDBRANCH  35  39
ENDBRANCH  33  35
ENDBRANCH  23  31
ENDBRANCH  21  23
ENDBRANCH  19  21
ENDBRANCH  14  19
ENDBRANCH   7  14
ENDBRANCH   2   5
BRANCH   3  45
ATOM     45  C   UNL     1      -5.505   5.338  -4.579  1.00  0.00     0.171 C 
BRANCH  45  46
ATOM     46  N   UNL     1      -5.254   5.525  -6.002  1.00  0.00    -0.342 N 
ATOM     47  C   UNL     1      -5.051   4.472  -6.859  1.00  0.00     0.247 C 
ATOM     48  O   UNL     1      -5.139   3.296  -6.505  1.00  0.00    -0.273 OA
ATOM     49  H   UNL     1      -5.228   6.482  -6.348  1.00  0.00     0.164 HD
BRANCH  47  50
ATOM     50  C   UNL     1      -4.677   4.866  -8.295  1.00  0.00     0.212 CG0
ATOM     51  G   UNL     1      -5.948   4.743  -9.159  1.00  0.00     0.000 G0
BRANCH  50  52
ATOM     52  N   UNL     1      -4.170   6.232  -8.205  1.00  0.00    -0.339 N 
ATOM     53  C   UNL     1      -2.873   6.578  -8.497  1.00  0.00     0.243 C 
ATOM     54  O   UNL     1      -2.021   5.750  -8.807  1.00  0.00    -0.273 OA
ATOM     55  H   UNL     1      -4.799   6.948  -7.846  1.00  0.00     0.164 HD
BRANCH  53  56
ATOM     56  C   UNL     1      -2.548   8.064  -8.246  1.00  0.00     0.182 C 
BRANCH  56  57
ATOM     57  N   UNL     1      -2.432   8.343  -6.810  1.00  0.00    -0.344 N 
ATOM     58  C   UNL     1      -1.250   8.732  -6.229  1.00  0.00     0.220 C 
ATOM     59  O   UNL     1      -0.196   8.804  -6.852  1.00  0.00    -0.275 OA
ATOM     60  H   UNL     1      -3.298   8.394  -6.280  1.00  0.00     0.164 HD
BRANCH  58  61
ATOM     61  C   UNL     1      -1.377   9.023  -4.745  1.00  0.00     0.100 C 
BRANCH  61  62
ATOM     62  C   UNL     1      -0.337  10.013  -4.220  1.00  0.00     0.010 C 
BRANCH  62  63
ATOM     63  C   UNL     1      -0.928  11.334  -3.712  1.00  0.00     0.000 C 
BRANCH  63  64
ATOM     64  C   UNL     1      -1.250  12.341  -4.815  1.00  0.00    -0.003 C 
ATOM     65  C   UNL     1      -0.077  12.514  -5.769  1.00  0.00     0.004 C 
ENDBRANCH  63  64
ENDBRANCH  62  63
ENDBRANCH  61  62
ENDBRANCH  58  61
ENDBRANCH  56  57
BRANCH  56  66
ATOM     66  C   UNL     1      -3.558   8.982  -8.931  1.00  0.00     0.157 C 
BRANCH  66  67
ATOM     67  C   UNL     1      -2.972  10.341  -9.188  1.00  0.00     0.305 C 
ATOM     68  O   UNL     1      -2.404  11.058  -8.379  1.00  0.00    -0.252 OA
BRANCH  67  69
ATOM     69  O   UNL     1      -3.084  10.712 -10.477  1.00  0.00    -0.481 OA
ATOM     70  H   UNL     1      -2.624  11.576 -10.530  1.00  0.00     0.296 HD
ENDBRANCH  67  69
ENDBRANCH  66  67
ENDBRANCH  56  66
ENDBRANCH  53  56
ENDBRANCH  50  52
ENDBRANCH  47  50
ENDBRANCH  45  46
BRANCH  45  71
ATOM     71  C   UNL     1      -7.005   5.248  -4.277  1.00  0.00     0.037 C 
BRANCH  71  72
ATOM     72  C   UNL     1      -7.407   3.864  -3.762  1.00  0.00     0.026 C 
BRANCH  72  73
ATOM     73  C   UNL     1      -8.890   3.586  -4.000  1.00  0.00     0.146 C 
BRANCH  73  74
ATOM     74  N   UNL     1      -9.007   2.812  -5.232  1.00  0.00    -0.254 NA
ATOM     75  C   UNL     1      -9.576   3.368  -6.237  1.00  0.00     0.185 C 
ATOM     76  N   UNL     1      -9.698   2.682  -7.385  1.00  0.00    -0.370 N 
ATOM     77  N   UNL     1     -10.102   4.602  -6.335  1.00  0.00    -0.370 N 
ATOM     78  H   UNL     1      -9.334   1.740  -7.395  1.00  0.00     0.159 HD
ATOM     79  H   UNL     1     -10.254   2.995  -8.161  1.00  0.00     0.159 HD
ATOM     80  H   UNL     1     -10.078   5.234  -5.549  1.00  0.00     0.159 HD
ATOM     81  H   UNL     1     -10.420   4.972  -7.215  1.00  0.00     0.159 HD
ENDBRANCH  73  74
ENDBRANCH  72  73
ENDBRANCH  71  72
ENDBRANCH  45  71
ENDBRANCH   3  45
TORSDOF 20
ENDMDL
MODEL 11
REMARK VINA RESULT:    -6.577      8.026     11.818
REMARK INTER + INTRA:         -24.590
REMARK INTER:                 -18.759
REMARK INTRA:                  -5.831
REMARK UNBOUND:                -5.711
REMARK SMILES CCCCCC(=O)N[C@H](CC(=O)O)C(=O)N[C@H]1C(=O)N[C@H](CCCN=C(N)N)C(=O)N[C@@H]2CC[C@H](O)N(C2=O)[C@@H](CC(C)C)C(=O)N(C)[C@@H](Cc2ccccc2)C(=O)N[C@H](C(C)C)C(=O)O[C@@H]1C
REMARK SMILES IDX 30 1 31 2 29 3 32 5 35 6 37 7 34 8 38 9 33 10 39 11 36 12
REMARK SMILES IDX 40 14 41 15 42 16 43 17 44 18 45 19 46 20 47 21 48 22 49 23
REMARK SMILES IDX 50 24 51 25 52 26 56 27 53 28 55 29 54 30 57 31 58 32 59 33
REMARK SMILES IDX 60 35 61 36 62 37 63 38 64 39 65 40 66 41 67 42 68 43 21 45
REMARK SMILES IDX 20 46 18 47 19 48 17 50 16 52 14 53 15 54 9 56 8 57 6 58
REMARK SMILES IDX 7 59 5 61 4 62 3 63 2 64 1 65 10 66 11 67 12 68 13 69 22 71
REMARK SMILES IDX 23 72 24 73 25 74 26 75 27 76 28 77
REMARK H PARENT 31 4 36 13 59 34 20 49 16 55 8 60 13 70 27 78 27 79 28 80
REMARK H PARENT 28 81
REMARK Flexibility Score:  259.900
ROOT
ATOM      1  O   UNL     1      -4.675   6.454  -3.937  1.00  0.00    -0.273 OA
ATOM      2  N   UNL     1      -5.707   6.330  -1.899  1.00  0.00    -0.343 N 
ATOM      3  C   UNL     1      -5.411   5.848  -3.156  1.00  0.00     0.243 C 
ATOM      4  H   UNL     1      -6.304   5.798  -1.278  1.00  0.00     0.164 HD
ENDROOT
BRANCH   2   5
ATOM      5  C   UNL     1      -5.248   7.651  -1.483  1.00  0.00     0.171 C 
ATOM      6  C   UNL     1      -5.653   9.199   0.934  1.00  0.00     0.214 C 
ATOM      7  N   UNL     1      -6.571   9.354  -0.170  1.00  0.00    -0.303 N 
ATOM      8  C   UNL     1      -4.244   8.829   0.498  1.00  0.00     0.057 C 
ATOM      9  C   UNL     1      -6.465   8.608  -1.333  1.00  0.00     0.247 C 
ATOM     10  C   UNL     1      -4.277   7.550  -0.309  1.00  0.00     0.040 C 
ATOM     11  O   UNL     1      -7.306   8.684  -2.239  1.00  0.00    -0.272 OA
BRANCH   6  12
ATOM     12  O   UNL     1      -6.176   8.215   1.795  1.00  0.00    -0.373 OA
ATOM     13  H   UNL     1      -5.750   7.365   1.552  1.00  0.00     0.213 HD
ENDBRANCH   6  12
BRANCH   7  14
ATOM     14  C   UNL     1      -7.732  10.243   0.043  1.00  0.00     0.177 C 
BRANCH  14  15
ATOM     15  C   UNL     1      -8.866   9.648   0.900  1.00  0.00     0.038 C 
BRANCH  15  16
ATOM     16  C   UNL     1      -9.979   8.819   0.221  1.00  0.00    -0.015 C 
ATOM     17  C   UNL     1     -11.342   9.009   0.892  1.00  0.00     0.007 C 
ATOM     18  C   UNL     1      -9.621   7.328   0.275  1.00  0.00     0.007 C 
ENDBRANCH  15  16
ENDBRANCH  14  15
BRANCH  14  19
ATOM     19  C   UNL     1      -7.273  11.742   0.061  1.00  0.00     0.245 C 
ATOM     20  O   UNL     1      -6.804  12.196  -0.996  1.00  0.00    -0.272 OA
BRANCH  19  21
ATOM     21  N   UNL     1      -7.259  12.531   1.197  1.00  0.00    -0.332 N 
ATOM     22  C   UNL     1      -8.270  13.509   1.557  1.00  0.00     0.147 C 
BRANCH  21  23
ATOM     23  C   UNL     1      -6.111  12.382   2.134  1.00  0.00     0.178 C 
BRANCH  23  24
ATOM     24  C   UNL     1      -5.115  13.560   2.127  1.00  0.00     0.070 C 
BRANCH  24  25
ATOM     25  C   UNL     1      -4.455  13.895   0.810  1.00  0.00    -0.045 A 
ATOM     26  C   UNL     1      -3.425  13.095   0.299  1.00  0.00     0.004 A 
ATOM     27  C   UNL     1      -4.863  15.022   0.081  1.00  0.00     0.004 A 
ATOM     28  C   UNL     1      -2.808  13.421  -0.910  1.00  0.00     0.000 A 
ATOM     29  C   UNL     1      -4.246  15.347  -1.129  1.00  0.00     0.000 A 
ATOM     30  C   UNL     1      -3.217  14.547  -1.622  1.00  0.00     0.000 A 
ENDBRANCH  24  25
ENDBRANCH  23  24
BRANCH  23  31
ATOM     31  C   UNL     1      -6.537  11.897   3.540  1.00  0.00     0.243 C 
ATOM     32  O   UNL     1      -6.968  10.772   3.777  1.00  0.00    -0.273 OA
ATOM     33  N   UNL     1      -6.567  12.907   4.487  1.00  0.00    -0.341 N 
ATOM     34  H   UNL     1      -6.200  13.826   4.229  1.00  0.00     0.164 HD
BRANCH  33  35
ATOM     35  C   UNL     1      -7.053  12.705   5.855  1.00  0.00     0.194 C 
BRANCH  35  36
ATOM     36  C   UNL     1      -8.523  13.158   6.080  1.00  0.00     0.017 C 
ATOM     37  C   UNL     1      -9.504  11.985   5.906  1.00  0.00     0.010 C 
ATOM     38  C   UNL     1      -8.966  14.271   5.122  1.00  0.00     0.010 C 
ENDBRANCH  35  36
BRANCH  35  39
ATOM     39  C   UNL     1      -6.093  13.297   6.924  1.00  0.00     0.329 C 
ATOM     40  O   UNL     1      -5.062  13.904   6.660  1.00  0.00    -0.250 OA
BRANCH  39  41
ATOM     41  O   UNL     1      -6.572  13.141   8.196  1.00  0.00    -0.458 OA
BRANCH  41  42
ATOM     42  C   UNL     1      -6.380  14.260   9.094  1.00  0.00     0.205 CG0
ATOM     43  C   UNL     1      -5.263  13.877  10.064  1.00  0.00     0.056 C 
ATOM     44  G   UNL     1      -7.713  14.547   9.814  1.00  0.00     0.000 G0
ENDBRANCH  41  42
ENDBRANCH  39  41
ENDBRANCH  35  39
ENDBRANCH  33  35
ENDBRANCH  23  31
ENDBRANCH  21  23
ENDBRANCH  19  21
ENDBRANCH  14  19
ENDBRANCH   7  14
ENDBRANCH   2   5
BRANCH   3  45
ATOM     45  C   UNL     1      -6.044   4.496  -3.508  1.00  0.00     0.171 C 
BRANCH  45  46
ATOM     46  N   UNL     1      -6.562   4.643  -4.862  1.00  0.00    -0.342 N 
ATOM     47  C   UNL     1      -6.198   3.803  -5.884  1.00  0.00     0.247 C 
ATOM     48  O   UNL     1      -5.470   2.824  -5.718  1.00  0.00    -0.273 OA
ATOM     49  H   UNL     1      -7.213   5.407  -5.031  1.00  0.00     0.164 HD
BRANCH  47  50
ATOM     50  C   UNL     1      -6.745   4.186  -7.266  1.00  0.00     0.212 CG0
ATOM     51  G   UNL     1      -7.185   2.888  -7.971  1.00  0.00     0.000 G0
BRANCH  50  52
ATOM     52  N   UNL     1      -7.850   5.105  -7.006  1.00  0.00    -0.339 N 
ATOM     53  C   UNL     1      -9.167   4.789  -7.239  1.00  0.00     0.243 C 
ATOM     54  O   UNL     1      -9.513   3.720  -7.736  1.00  0.00    -0.273 OA
ATOM     55  H   UNL     1      -7.619   6.047  -6.698  1.00  0.00     0.164 HD
BRANCH  53  56
ATOM     56  C   UNL     1     -10.148   5.948  -6.971  1.00  0.00     0.182 C 
BRANCH  56  57
ATOM     57  N   UNL     1     -11.537   5.514  -7.150  1.00  0.00    -0.344 N 
ATOM     58  C   UNL     1     -12.367   5.245  -6.089  1.00  0.00     0.220 C 
ATOM     59  O   UNL     1     -11.986   5.278  -4.924  1.00  0.00    -0.275 OA
ATOM     60  H   UNL     1     -11.920   5.573  -8.090  1.00  0.00     0.164 HD
BRANCH  58  61
ATOM     61  C   UNL     1     -13.776   4.870  -6.508  1.00  0.00     0.100 C 
BRANCH  61  62
ATOM     62  C   UNL     1     -14.143   3.417  -6.206  1.00  0.00     0.010 C 
BRANCH  62  63
ATOM     63  C   UNL     1     -15.220   3.253  -5.126  1.00  0.00     0.000 C 
BRANCH  63  64
ATOM     64  C   UNL     1     -14.678   3.243  -3.698  1.00  0.00    -0.003 C 
ATOM     65  C   UNL     1     -15.044   4.521  -2.957  1.00  0.00     0.004 C 
ENDBRANCH  63  64
ENDBRANCH  62  63
ENDBRANCH  61  62
ENDBRANCH  58  61
ENDBRANCH  56  57
BRANCH  56  66
ATOM     66  C   UNL     1      -9.812   7.173  -7.820  1.00  0.00     0.157 C 
BRANCH  66  67
ATOM     67  C   UNL     1     -11.037   7.718  -8.497  1.00  0.00     0.305 C 
ATOM     68  O   UNL     1     -11.768   8.605  -8.085  1.00  0.00    -0.252 OA
BRANCH  67  69
ATOM     69  O   UNL     1     -11.253   7.148  -9.698  1.00  0.00    -0.481 OA
ATOM     70  H   UNL     1     -10.526   7.479 -10.266  1.00  0.00     0.296 HD
ENDBRANCH  67  69
ENDBRANCH  66  67
ENDBRANCH  56  66
ENDBRANCH  53  56
ENDBRANCH  50  52
ENDBRANCH  47  50
ENDBRANCH  45  46
BRANCH  45  71
ATOM     71  C   UNL     1      -7.157   4.152  -2.511  1.00  0.00     0.037 C 
BRANCH  71  72
ATOM     72  C   UNL     1      -6.840   2.890  -1.706  1.00  0.00     0.026 C 
BRANCH  72  73
ATOM     73  C   UNL     1      -6.531   1.706  -2.620  1.00  0.00     0.146 C 
BRANCH  73  74
ATOM     74  N   UNL     1      -5.466   0.926  -1.996  1.00  0.00    -0.254 NA
ATOM     75  C   UNL     1      -4.326   0.893  -2.582  1.00  0.00     0.185 C 
ATOM     76  N   UNL     1      -3.327   0.185  -2.032  1.00  0.00    -0.370 N 
ATOM     77  N   UNL     1      -3.947   1.488  -3.726  1.00  0.00    -0.370 N 
ATOM     78  H   UNL     1      -3.530  -0.302  -1.171  1.00  0.00     0.159 HD
ATOM     79  H   UNL     1      -2.459  -0.005  -2.502  1.00  0.00     0.159 HD
ATOM     80  H   UNL     1      -4.595   2.057  -4.248  1.00  0.00     0.159 HD
ATOM     81  H   UNL     1      -2.987   1.484  -4.030  1.00  0.00     0.159 HD
ENDBRANCH  73  74
ENDBRANCH  72  73
ENDBRANCH  71  72
ENDBRANCH  45  71
ENDBRANCH   3  45
TORSDOF 20
ENDMDL
MODEL 12
REMARK VINA RESULT:    -6.525      4.734      8.082
REMARK INTER + INTRA:         -24.442
REMARK INTER:                 -17.927
REMARK INTRA:                  -6.515
REMARK UNBOUND:                -5.711
REMARK SMILES CCCCCC(=O)N[C@H](CC(=O)O)C(=O)N[C@H]1C(=O)N[C@H](CCCN=C(N)N)C(=O)N[C@@H]2CC[C@H](O)N(C2=O)[C@@H](CC(C)C)C(=O)N(C)[C@@H](Cc2ccccc2)C(=O)N[C@H](C(C)C)C(=O)O[C@@H]1C
REMARK SMILES IDX 30 1 31 2 29 3 32 5 35 6 37 7 34 8 38 9 33 10 39 11 36 12
REMARK SMILES IDX 40 14 41 15 42 16 43 17 44 18 45 19 46 20 47 21 48 22 49 23
REMARK SMILES IDX 50 24 51 25 52 26 56 27 53 28 55 29 54 30 57 31 58 32 59 33
REMARK SMILES IDX 60 35 61 36 62 37 63 38 64 39 65 40 66 41 67 42 68 43 21 45
REMARK SMILES IDX 20 46 18 47 19 48 17 50 16 52 14 53 15 54 9 56 8 57 6 58
REMARK SMILES IDX 7 59 5 61 4 62 3 63 2 64 1 65 10 66 11 67 12 68 13 69 22 71
REMARK SMILES IDX 23 72 24 73 25 74 26 75 27 76 28 77
REMARK H PARENT 31 4 36 13 59 34 20 49 16 55 8 60 13 70 27 78 27 79 28 80
REMARK H PARENT 28 81
REMARK Flexibility Score:  259.900
ROOT
ATOM      1  O   UNL     1      -2.843  11.491  -0.913  1.00  0.00    -0.273 OA
ATOM      2  N   UNL     1      -4.880  11.677  -1.937  1.00  0.00    -0.343 N 
ATOM      3  C   UNL     1      -3.635  12.153  -1.585  1.00  0.00     0.243 C 
ATOM      4  H   UNL     1      -5.499  12.244  -2.503  1.00  0.00     0.164 HD
ENDROOT
BRANCH   2   5
ATOM      5  C   UNL     1      -5.361  10.401  -1.419  1.00  0.00     0.171 C 
ATOM      6  C   UNL     1      -8.018   9.376  -0.881  1.00  0.00     0.214 C 
ATOM      7  N   UNL     1      -7.294  10.057   0.167  1.00  0.00    -0.303 N 
ATOM      8  C   UNL     1      -7.113   8.654  -1.867  1.00  0.00     0.057 C 
ATOM      9  C   UNL     1      -6.043  10.615  -0.038  1.00  0.00     0.247 C 
ATOM     10  C   UNL     1      -6.143   9.637  -2.486  1.00  0.00     0.040 C 
ATOM     11  O   UNL     1      -5.466  11.272   0.839  1.00  0.00    -0.272 OA
BRANCH   6  12
ATOM     12  O   UNL     1      -8.811  10.330  -1.548  1.00  0.00    -0.373 OA
ATOM     13  H   UNL     1      -8.363  11.197  -1.446  1.00  0.00     0.213 HD
ENDBRANCH   6  12
BRANCH   7  14
ATOM     14  C   UNL     1      -8.006  10.270   1.445  1.00  0.00     0.177 C 
BRANCH  14  15
ATOM     15  C   UNL     1      -9.167  11.282   1.388  1.00  0.00     0.038 C 
BRANCH  15  16
ATOM     16  C   UNL     1      -8.869  12.791   1.528  1.00  0.00    -0.015 C 
ATOM     17  C   UNL     1      -9.932  13.523   2.353  1.00  0.00     0.007 C 
ATOM     18  C   UNL     1      -8.808  13.440   0.139  1.00  0.00     0.007 C 
ENDBRANCH  15  16
ENDBRANCH  14  15
BRANCH  14  19
ATOM     19  C   UNL     1      -7.988   8.958   2.303  1.00  0.00     0.245 C 
ATOM     20  O   UNL     1      -7.156   8.093   1.983  1.00  0.00    -0.272 OA
BRANCH  19  21
ATOM     21  N   UNL     1      -8.904   8.676   3.300  1.00  0.00    -0.332 N 
ATOM     22  C   UNL     1      -9.901   7.622   3.255  1.00  0.00     0.147 C 
BRANCH  21  23
ATOM     23  C   UNL     1      -8.884   9.525   4.524  1.00  0.00     0.178 C 
BRANCH  23  24
ATOM     24  C   UNL     1      -7.702  10.512   4.605  1.00  0.00     0.070 C 
BRANCH  24  25
ATOM     25  C   UNL     1      -7.771  11.582   5.670  1.00  0.00    -0.045 A 
ATOM     26  C   UNL     1      -8.052  12.912   5.334  1.00  0.00     0.004 A 
ATOM     27  C   UNL     1      -7.549  11.255   7.017  1.00  0.00     0.004 A 
ATOM     28  C   UNL     1      -8.098  13.898   6.322  1.00  0.00     0.000 A 
ATOM     29  C   UNL     1      -7.595  12.242   8.003  1.00  0.00     0.000 A 
ATOM     30  C   UNL     1      -7.867  13.563   7.654  1.00  0.00     0.000 A 
ENDBRANCH  24  25
ENDBRANCH  23  24
BRANCH  23  31
ATOM     31  C   UNL     1     -10.267  10.135   4.858  1.00  0.00     0.243 C 
ATOM     32  O   UNL     1     -10.788  11.046   4.220  1.00  0.00    -0.273 OA
ATOM     33  N   UNL     1     -10.792   9.689   6.059  1.00  0.00    -0.341 N 
ATOM     34  H   UNL     1     -10.310   8.931   6.548  1.00  0.00     0.164 HD
BRANCH  33  35
ATOM     35  C   UNL     1     -12.032  10.218   6.634  1.00  0.00     0.194 C 
BRANCH  35  36
ATOM     36  C   UNL     1     -11.813  11.232   7.792  1.00  0.00     0.017 C 
ATOM     37  C   UNL     1     -11.431  12.622   7.253  1.00  0.00     0.010 C 
ATOM     38  C   UNL     1     -10.715  10.802   8.772  1.00  0.00     0.010 C 
ENDBRANCH  35  36
BRANCH  35  39
ATOM     39  C   UNL     1     -13.035   9.097   7.026  1.00  0.00     0.329 C 
ATOM     40  O   UNL     1     -12.725   8.083   7.640  1.00  0.00    -0.250 OA
BRANCH  39  41
ATOM     41  O   UNL     1     -14.322   9.408   6.684  1.00  0.00    -0.458 OA
BRANCH  41  42
ATOM     42  C   UNL     1     -15.347   9.023   7.631  1.00  0.00     0.205 CG0
ATOM     43  C   UNL     1     -16.577   8.609   6.825  1.00  0.00     0.056 C 
ATOM     44  G   UNL     1     -15.629  10.218   8.564  1.00  0.00     0.000 G0
ENDBRANCH  41  42
ENDBRANCH  39  41
ENDBRANCH  35  39
ENDBRANCH  33  35
ENDBRANCH  23  31
ENDBRANCH  21  23
ENDBRANCH  19  21
ENDBRANCH  14  19
ENDBRANCH   7  14
ENDBRANCH   2   5
BRANCH   3  45
ATOM     45  C   UNL     1      -3.295  13.555  -2.107  1.00  0.00     0.171 C 
BRANCH  45  46
ATOM     46  N   UNL     1      -2.062  13.404  -2.869  1.00  0.00    -0.342 N 
ATOM     47  C   UNL     1      -1.827  14.091  -4.033  1.00  0.00     0.247 C 
ATOM     48  O   UNL     1      -2.604  14.937  -4.478  1.00  0.00    -0.273 OA
ATOM     49  H   UNL     1      -1.367  12.755  -2.505  1.00  0.00     0.164 HD
BRANCH  47  50
ATOM     50  C   UNL     1      -0.530  13.711  -4.761  1.00  0.00     0.212 CG0
ATOM     51  G   UNL     1       0.645  14.321  -3.972  1.00  0.00     0.000 G0
BRANCH  50  52
ATOM     52  N   UNL     1      -0.512  12.251  -4.788  1.00  0.00    -0.339 N 
ATOM     53  C   UNL     1      -0.810  11.511  -5.906  1.00  0.00     0.243 C 
ATOM     54  O   UNL     1      -1.169  12.024  -6.963  1.00  0.00    -0.273 OA
ATOM     55  H   UNL     1      -0.330  11.765  -3.912  1.00  0.00     0.164 HD
BRANCH  53  56
ATOM     56  C   UNL     1      -0.809   9.988  -5.670  1.00  0.00     0.182 C 
BRANCH  56  57
ATOM     57  N   UNL     1      -0.713   9.677  -4.240  1.00  0.00    -0.344 N 
ATOM     58  C   UNL     1      -1.678   8.959  -3.576  1.00  0.00     0.220 C 
ATOM     59  O   UNL     1      -2.718   8.592  -4.112  1.00  0.00    -0.275 OA
ATOM     60  H   UNL     1       0.175   9.873  -3.785  1.00  0.00     0.164 HD
BRANCH  58  61
ATOM     61  C   UNL     1      -1.343   8.706  -2.118  1.00  0.00     0.100 C 
BRANCH  61  62
ATOM     62  C   UNL     1      -2.445   7.977  -1.350  1.00  0.00     0.010 C 
BRANCH  62  63
ATOM     63  C   UNL     1      -2.610   8.441   0.103  1.00  0.00     0.000 C 
BRANCH  63  64
ATOM     64  C   UNL     1      -3.558   7.577   0.933  1.00  0.00    -0.003 C 
ATOM     65  C   UNL     1      -4.683   7.010   0.080  1.00  0.00     0.004 C 
ENDBRANCH  63  64
ENDBRANCH  62  63
ENDBRANCH  61  62
ENDBRANCH  58  61
ENDBRANCH  56  57
BRANCH  56  66
ATOM     66  C   UNL     1       0.282   9.295  -6.485  1.00  0.00     0.157 C 
BRANCH  66  67
ATOM     67  C   UNL     1      -0.238   8.047  -7.139  1.00  0.00     0.305 C 
ATOM     68  O   UNL     1      -0.219   7.783  -8.332  1.00  0.00    -0.252 OA
BRANCH  67  69
ATOM     69  O   UNL     1      -0.715   7.161  -6.245  1.00  0.00    -0.481 OA
ATOM     70  H   UNL     1      -0.362   6.294  -6.539  1.00  0.00     0.296 HD
ENDBRANCH  67  69
ENDBRANCH  66  67
ENDBRANCH  56  66
ENDBRANCH  53  56
ENDBRANCH  50  52
ENDBRANCH  47  50
ENDBRANCH  45  46
BRANCH  45  71
ATOM     71  C   UNL     1      -3.122  14.532  -0.939  1.00  0.00     0.037 C 
BRANCH  71  72
ATOM     72  C   UNL     1      -4.365  15.399  -0.725  1.00  0.00     0.026 C 
BRANCH  72  73
ATOM     73  C   UNL     1      -5.352  14.737   0.234  1.00  0.00     0.146 C 
BRANCH  73  74
ATOM     74  N   UNL     1      -4.591  14.200   1.359  1.00  0.00    -0.254 NA
ATOM     75  C   UNL     1      -5.058  14.381   2.539  1.00  0.00     0.185 C 
ATOM     76  N   UNL     1      -4.381  13.899   3.593  1.00  0.00    -0.370 N 
ATOM     77  N   UNL     1      -6.183  15.014   2.914  1.00  0.00    -0.370 N 
ATOM     78  H   UNL     1      -3.516  13.414   3.399  1.00  0.00     0.159 HD
ATOM     79  H   UNL     1      -4.606  14.124   4.546  1.00  0.00     0.159 HD
ATOM     80  H   UNL     1      -6.796  15.425   2.226  1.00  0.00     0.159 HD
ATOM     81  H   UNL     1      -6.508  14.993   3.867  1.00  0.00     0.159 HD
ENDBRANCH  73  74
ENDBRANCH  72  73
ENDBRANCH  71  72
ENDBRANCH  45  71
ENDBRANCH   3  45
TORSDOF 20
ENDMDL
MODEL 13
REMARK VINA RESULT:    -6.513      3.174      4.837
REMARK INTER + INTRA:         -24.409
REMARK INTER:                 -17.812
REMARK INTRA:                  -6.596
REMARK UNBOUND:                -5.711
REMARK SMILES CCCCCC(=O)N[C@H](CC(=O)O)C(=O)N[C@H]1C(=O)N[C@H](CCCN=C(N)N)C(=O)N[C@@H]2CC[C@H](O)N(C2=O)[C@@H](CC(C)C)C(=O)N(C)[C@@H](Cc2ccccc2)C(=O)N[C@H](C(C)C)C(=O)O[C@@H]1C
REMARK SMILES IDX 30 1 31 2 29 3 32 5 35 6 37 7 34 8 38 9 33 10 39 11 36 12
REMARK SMILES IDX 40 14 41 15 42 16 43 17 44 18 45 19 46 20 47 21 48 22 49 23
REMARK SMILES IDX 50 24 51 25 52 26 56 27 53 28 55 29 54 30 57 31 58 32 59 33
REMARK SMILES IDX 60 35 61 36 62 37 63 38 64 39 65 40 66 41 67 42 68 43 21 45
REMARK SMILES IDX 20 46 18 47 19 48 17 50 16 52 14 53 15 54 9 56 8 57 6 58
REMARK SMILES IDX 7 59 5 61 4 62 3 63 2 64 1 65 10 66 11 67 12 68 13 69 22 71
REMARK SMILES IDX 23 72 24 73 25 74 26 75 27 76 28 77
REMARK H PARENT 31 4 36 13 59 34 20 49 16 55 8 60 13 70 27 78 27 79 28 80
REMARK H PARENT 28 81
REMARK Flexibility Score:  259.900
ROOT
ATOM      1  O   UNL     1      -2.123  14.694  -4.744  1.00  0.00    -0.273 OA
ATOM      2  N   UNL     1      -2.112  13.298  -2.933  1.00  0.00    -0.343 N 
ATOM      3  C   UNL     1      -1.607  13.761  -4.129  1.00  0.00     0.243 C 
ATOM      4  H   UNL     1      -1.652  12.537  -2.447  1.00  0.00     0.164 HD
ENDROOT
BRANCH   2   5
ATOM      5  C   UNL     1      -3.365  13.824  -2.402  1.00  0.00     0.171 C 
ATOM      6  C   UNL     1      -4.609  13.672   0.212  1.00  0.00     0.214 C 
ATOM      7  N   UNL     1      -4.912  12.666  -0.779  1.00  0.00    -0.303 N 
ATOM      8  C   UNL     1      -4.275  15.028  -0.391  1.00  0.00     0.057 C 
ATOM      9  C   UNL     1      -4.314  12.650  -2.029  1.00  0.00     0.247 C 
ATOM     10  C   UNL     1      -3.105  14.892  -1.341  1.00  0.00     0.040 C 
ATOM     11  O   UNL     1      -4.514  11.736  -2.840  1.00  0.00    -0.272 OA
BRANCH   6  12
ATOM     12  O   UNL     1      -3.534  13.200   0.990  1.00  0.00    -0.373 OA
ATOM     13  H   UNL     1      -3.186  12.399   0.544  1.00  0.00     0.213 HD
ENDBRANCH   6  12
BRANCH   7  14
ATOM     14  C   UNL     1      -5.786  11.551  -0.356  1.00  0.00     0.177 C 
BRANCH  14  15
ATOM     15  C   UNL     1      -5.216  10.658   0.763  1.00  0.00     0.038 C 
BRANCH  15  16
ATOM     16  C   UNL     1      -5.012   9.149   0.504  1.00  0.00    -0.015 C 
ATOM     17  C   UNL     1      -5.371   8.749  -0.930  1.00  0.00     0.007 C 
ATOM     18  C   UNL     1      -5.890   8.335   1.463  1.00  0.00     0.007 C 
ENDBRANCH  15  16
ENDBRANCH  14  15
BRANCH  14  19
ATOM     19  C   UNL     1      -7.293  11.949  -0.519  1.00  0.00     0.245 C 
ATOM     20  O   UNL     1      -7.842  11.637  -1.590  1.00  0.00    -0.272 OA
BRANCH  19  21
ATOM     21  N   UNL     1      -7.993  12.712   0.399  1.00  0.00    -0.332 N 
ATOM     22  C   UNL     1      -8.228  14.142   0.303  1.00  0.00     0.147 C 
BRANCH  21  23
ATOM     23  C   UNL     1      -8.548  12.023   1.597  1.00  0.00     0.178 C 
BRANCH  23  24
ATOM     24  C   UNL     1      -8.957  10.554   1.365  1.00  0.00     0.070 C 
BRANCH  24  25
ATOM     25  C   UNL     1      -9.841   9.913   2.409  1.00  0.00    -0.045 A 
ATOM     26  C   UNL     1      -9.477   8.702   3.012  1.00  0.00     0.004 A 
ATOM     27  C   UNL     1     -11.046  10.523   2.787  1.00  0.00     0.004 A 
ATOM     28  C   UNL     1     -10.308   8.107   3.964  1.00  0.00     0.000 A 
ATOM     29  C   UNL     1     -11.875   9.928   3.740  1.00  0.00     0.000 A 
ATOM     30  C   UNL     1     -11.506   8.719   4.325  1.00  0.00     0.000 A 
ENDBRANCH  24  25
ENDBRANCH  23  24
BRANCH  23  31
ATOM     31  C   UNL     1      -7.715  12.273   2.877  1.00  0.00     0.243 C 
ATOM     32  O   UNL     1      -6.981  11.435   3.393  1.00  0.00    -0.273 OA
ATOM     33  N   UNL     1      -8.010  13.472   3.503  1.00  0.00    -0.341 N 
ATOM     34  H   UNL     1      -8.633  14.128   3.026  1.00  0.00     0.164 HD
BRANCH  33  35
ATOM     35  C   UNL     1      -7.431  13.864   4.791  1.00  0.00     0.194 C 
BRANCH  35  36
ATOM     36  C   UNL     1      -5.905  13.588   4.912  1.00  0.00     0.017 C 
ATOM     37  C   UNL     1      -5.393  13.892   6.330  1.00  0.00     0.010 C 
ATOM     38  C   UNL     1      -5.062  14.413   3.932  1.00  0.00     0.010 C 
ENDBRANCH  35  36
BRANCH  35  39
ATOM     39  C   UNL     1      -8.222  13.293   6.001  1.00  0.00     0.329 C 
ATOM     40  O   UNL     1      -8.166  12.125   6.367  1.00  0.00    -0.250 OA
BRANCH  39  41
ATOM     41  O   UNL     1      -8.922  14.260   6.667  1.00  0.00    -0.458 OA
BRANCH  41  42
ATOM     42  C   UNL     1      -9.991  13.800   7.528  1.00  0.00     0.205 CG0
ATOM     43  C   UNL     1     -11.287  13.875   6.722  1.00  0.00     0.056 C 
ATOM     44  G   UNL     1     -10.027  14.689   8.787  1.00  0.00     0.000 G0
ENDBRANCH  41  42
ENDBRANCH  39  41
ENDBRANCH  35  39
ENDBRANCH  33  35
ENDBRANCH  23  31
ENDBRANCH  21  23
ENDBRANCH  19  21
ENDBRANCH  14  19
ENDBRANCH   7  14
ENDBRANCH   2   5
BRANCH   3  45
ATOM     45  C   UNL     1      -0.343  13.048  -4.629  1.00  0.00     0.171 C 
BRANCH  45  46
ATOM     46  N   UNL     1      -0.263  13.341  -6.053  1.00  0.00    -0.342 N 
ATOM     47  C   UNL     1       0.819  13.970  -6.616  1.00  0.00     0.247 C 
ATOM     48  O   UNL     1       1.828  14.265  -5.975  1.00  0.00    -0.273 OA
ATOM     49  H   UNL     1      -1.054  13.063  -6.631  1.00  0.00     0.164 HD
BRANCH  47  50
ATOM     50  C   UNL     1       0.673  14.307  -8.107  1.00  0.00     0.212 CG0
ATOM     51  G   UNL     1       2.001  14.931  -8.577  1.00  0.00     0.000 G0
BRANCH  50  52
ATOM     52  N   UNL     1       0.365  13.040  -8.764  1.00  0.00    -0.339 N 
ATOM     53  C   UNL     1       0.755  12.740 -10.047  1.00  0.00     0.243 C 
ATOM     54  O   UNL     1       1.351  13.541 -10.762  1.00  0.00    -0.273 OA
ATOM     55  H   UNL     1      -0.224  12.377  -8.263  1.00  0.00     0.164 HD
BRANCH  53  56
ATOM     56  C   UNL     1       0.240  11.379 -10.557  1.00  0.00     0.182 C 
BRANCH  56  57
ATOM     57  N   UNL     1      -0.761  10.818  -9.643  1.00  0.00    -0.344 N 
ATOM     58  C   UNL     1      -2.059  10.586 -10.026  1.00  0.00     0.220 C 
ATOM     59  O   UNL     1      -2.491  10.897 -11.131  1.00  0.00    -0.275 OA
ATOM     60  H   UNL     1      -0.422  10.454  -8.757  1.00  0.00     0.164 HD
BRANCH  58  61
ATOM     61  C   UNL     1      -2.902   9.948  -8.938  1.00  0.00     0.100 C 
BRANCH  61  62
ATOM     62  C   UNL     1      -3.573   8.641  -9.363  1.00  0.00     0.010 C 
BRANCH  62  63
ATOM     63  C   UNL     1      -2.592   7.552  -9.818  1.00  0.00     0.000 C 
BRANCH  63  64
ATOM     64  C   UNL     1      -1.631   7.081  -8.728  1.00  0.00    -0.003 C 
ATOM     65  C   UNL     1      -1.122   5.674  -9.008  1.00  0.00     0.004 C 
ENDBRANCH  63  64
ENDBRANCH  62  63
ENDBRANCH  61  62
ENDBRANCH  58  61
ENDBRANCH  56  57
BRANCH  56  66
ATOM     66  C   UNL     1       1.389  10.408 -10.819  1.00  0.00     0.157 C 
BRANCH  66  67
ATOM     67  C   UNL     1       0.968   8.987 -10.576  1.00  0.00     0.305 C 
ATOM     68  O   UNL     1       0.320   8.276 -11.330  1.00  0.00    -0.252 OA
BRANCH  67  69
ATOM     69  O   UNL     1       1.431   8.509  -9.406  1.00  0.00    -0.481 OA
ATOM     70  H   UNL     1       0.969   9.036  -8.720  1.00  0.00     0.296 HD
ENDBRANCH  67  69
ENDBRANCH  66  67
ENDBRANCH  56  66
ENDBRANCH  53  56
ENDBRANCH  50  52
ENDBRANCH  47  50
ENDBRANCH  45  46
BRANCH  45  71
ATOM     71  C   UNL     1      -0.442  11.541  -4.366  1.00  0.00     0.037 C 
BRANCH  71  72
ATOM     72  C   UNL     1      -1.154  10.804  -5.503  1.00  0.00     0.026 C 
BRANCH  72  73
ATOM     73  C   UNL     1      -0.259   9.732  -6.122  1.00  0.00     0.146 C 
BRANCH  73  74
ATOM     74  N   UNL     1       0.671  10.395  -7.031  1.00  0.00    -0.254 NA
ATOM     75  C   UNL     1       1.921  10.343  -6.752  1.00  0.00     0.185 C 
ATOM     76  N   UNL     1       2.801  10.943  -7.570  1.00  0.00    -0.370 N 
ATOM     77  N   UNL     1       2.530   9.748  -5.712  1.00  0.00    -0.370 N 
ATOM     78  H   UNL     1       2.424  11.421  -8.375  1.00  0.00     0.159 HD
ATOM     79  H   UNL     1       3.772  11.067  -7.342  1.00  0.00     0.159 HD
ATOM     80  H   UNL     1       1.993   9.253  -5.016  1.00  0.00     0.159 HD
ATOM     81  H   UNL     1       3.533   9.674  -5.659  1.00  0.00     0.159 HD
ENDBRANCH  73  74
ENDBRANCH  72  73
ENDBRANCH  71  72
ENDBRANCH  45  71
ENDBRANCH   3  45
TORSDOF 20
ENDMDL
MODEL 14
REMARK VINA RESULT:    -6.425      3.089     15.648
REMARK INTER + INTRA:         -24.156
REMARK INTER:                 -18.447
REMARK INTRA:                  -5.709
REMARK UNBOUND:                -5.711
REMARK SMILES CCCCCC(=O)N[C@H](CC(=O)O)C(=O)N[C@H]1C(=O)N[C@H](CCCN=C(N)N)C(=O)N[C@@H]2CC[C@H](O)N(C2=O)[C@@H](CC(C)C)C(=O)N(C)[C@@H](Cc2ccccc2)C(=O)N[C@H](C(C)C)C(=O)O[C@@H]1C
REMARK SMILES IDX 30 1 31 2 29 3 32 5 35 6 37 7 34 8 38 9 33 10 39 11 36 12
REMARK SMILES IDX 40 14 41 15 42 16 43 17 44 18 45 19 46 20 47 21 48 22 49 23
REMARK SMILES IDX 50 24 51 25 52 26 56 27 53 28 55 29 54 30 57 31 58 32 59 33
REMARK SMILES IDX 60 35 61 36 62 37 63 38 64 39 65 40 66 41 67 42 68 43 21 45
REMARK SMILES IDX 20 46 18 47 19 48 17 50 16 52 14 53 15 54 9 56 8 57 6 58
REMARK SMILES IDX 7 59 5 61 4 62 3 63 2 64 1 65 10 66 11 67 12 68 13 69 22 71
REMARK SMILES IDX 23 72 24 73 25 74 26 75 27 76 28 77
REMARK H PARENT 31 4 36 13 59 34 20 49 16 55 8 60 13 70 27 78 27 79 28 80
REMARK H PARENT 28 81
REMARK Flexibility Score:  259.900
ROOT
ATOM      1  O   UNL     1      -4.292  11.652  -2.617  1.00  0.00    -0.273 OA
ATOM      2  N   UNL     1      -2.264  10.614  -2.418  1.00  0.00    -0.343 N 
ATOM      3  C   UNL     1      -3.372  11.251  -1.903  1.00  0.00     0.243 C 
ATOM      4  H   UNL     1      -1.533  10.284  -1.799  1.00  0.00     0.164 HD
ENDROOT
BRANCH   2   5
ATOM      5  C   UNL     1      -2.080  10.492  -3.860  1.00  0.00     0.171 C 
ATOM      6  C   UNL     1      -0.023   9.250  -5.481  1.00  0.00     0.214 C 
ATOM      7  N   UNL     1       0.106  10.640  -5.113  1.00  0.00    -0.303 N 
ATOM      8  C   UNL     1      -1.468   8.793  -5.609  1.00  0.00     0.057 C 
ATOM      9  C   UNL     1      -0.814  11.281  -4.299  1.00  0.00     0.247 C 
ATOM     10  C   UNL     1      -2.199   9.036  -4.307  1.00  0.00     0.040 C 
ATOM     11  O   UNL     1      -0.651  12.448  -3.917  1.00  0.00    -0.272 OA
BRANCH   6  12
ATOM     12  O   UNL     1       0.652   8.483  -4.511  1.00  0.00    -0.373 OA
ATOM     13  H   UNL     1       0.022   7.800  -4.195  1.00  0.00     0.213 HD
ENDBRANCH   6  12
BRANCH   7  14
ATOM     14  C   UNL     1       1.349  11.329  -5.520  1.00  0.00     0.177 C 
BRANCH  14  15
ATOM     15  C   UNL     1       2.654  10.584  -5.178  1.00  0.00     0.038 C 
BRANCH  15  16
ATOM     16  C   UNL     1       3.462  10.999  -3.928  1.00  0.00    -0.015 C 
ATOM     17  C   UNL     1       4.934  11.275  -4.249  1.00  0.00     0.007 C 
ATOM     18  C   UNL     1       3.400   9.884  -2.877  1.00  0.00     0.007 C 
ENDBRANCH  15  16
ENDBRANCH  14  15
BRANCH  14  19
ATOM     19  C   UNL     1       1.101  12.177  -6.815  1.00  0.00     0.245 C 
ATOM     20  O   UNL     1       1.158  13.412  -6.695  1.00  0.00    -0.272 OA
BRANCH  19  21
ATOM     21  N   UNL     1       0.720  11.635  -8.030  1.00  0.00    -0.332 N 
ATOM     22  C   UNL     1      -0.453  12.021  -8.794  1.00  0.00     0.147 C 
BRANCH  21  23
ATOM     23  C   UNL     1       1.570  10.558  -8.609  1.00  0.00     0.178 C 
BRANCH  23  24
ATOM     24  C   UNL     1       0.894   9.730  -9.721  1.00  0.00     0.070 C 
BRANCH  24  25
ATOM     25  C   UNL     1       0.037   8.564  -9.287  1.00  0.00    -0.045 A 
ATOM     26  C   UNL     1       0.597   7.478  -8.601  1.00  0.00     0.004 A 
ATOM     27  C   UNL     1      -1.337   8.551  -9.571  1.00  0.00     0.004 A 
ATOM     28  C   UNL     1      -0.198   6.396  -8.218  1.00  0.00     0.000 A 
ATOM     29  C   UNL     1      -2.131   7.469  -9.186  1.00  0.00     0.000 A 
ATOM     30  C   UNL     1      -1.560   6.391  -8.513  1.00  0.00     0.000 A 
ENDBRANCH  24  25
ENDBRANCH  23  24
BRANCH  23  31
ATOM     31  C   UNL     1       3.008  11.030  -8.931  1.00  0.00     0.243 C 
ATOM     32  O   UNL     1       4.006  10.661  -8.318  1.00  0.00    -0.273 OA
ATOM     33  N   UNL     1       3.058  12.057  -9.859  1.00  0.00    -0.341 N 
ATOM     34  H   UNL     1       2.192  12.325 -10.333  1.00  0.00     0.164 HD
BRANCH  33  35
ATOM     35  C   UNL     1       4.300  12.740 -10.228  1.00  0.00     0.194 C 
BRANCH  35  36
ATOM     36  C   UNL     1       4.146  14.275 -10.428  1.00  0.00     0.017 C 
ATOM     37  C   UNL     1       3.384  14.918  -9.257  1.00  0.00     0.010 C 
ATOM     38  C   UNL     1       3.402  14.644 -11.718  1.00  0.00     0.010 C 
ENDBRANCH  35  36
BRANCH  35  39
ATOM     39  C   UNL     1       5.018  12.067 -11.432  1.00  0.00     0.329 C 
ATOM     40  O   UNL     1       4.481  11.271 -12.193  1.00  0.00    -0.250 OA
BRANCH  39  41
ATOM     41  O   UNL     1       6.294  12.529 -11.601  1.00  0.00    -0.458 OA
BRANCH  41  42
ATOM     42  C   UNL     1       6.916  12.242 -12.876  1.00  0.00     0.205 CG0
ATOM     43  C   UNL     1       7.981  11.174 -12.631  1.00  0.00     0.056 C 
ATOM     44  G   UNL     1       7.510  13.549 -13.439  1.00  0.00     0.000 G0
ENDBRANCH  41  42
ENDBRANCH  39  41
ENDBRANCH  35  39
ENDBRANCH  33  35
ENDBRANCH  23  31
ENDBRANCH  21  23
ENDBRANCH  19  21
ENDBRANCH  14  19
ENDBRANCH   7  14
ENDBRANCH   2   5
BRANCH   3  45
ATOM     45  C   UNL     1      -3.389  11.408  -0.377  1.00  0.00     0.171 C 
BRANCH  45  46
ATOM     46  N   UNL     1      -4.782  11.248   0.020  1.00  0.00    -0.342 N 
ATOM     47  C   UNL     1      -5.289  10.051   0.461  1.00  0.00     0.247 C 
ATOM     48  O   UNL     1      -4.591   9.049   0.623  1.00  0.00    -0.273 OA
ATOM     49  H   UNL     1      -5.382  12.068  -0.045  1.00  0.00     0.164 HD
BRANCH  47  50
ATOM     50  C   UNL     1      -6.803  10.040   0.715  1.00  0.00     0.212 CG0
ATOM     51  G   UNL     1      -7.094   8.944   1.758  1.00  0.00     0.000 G0
BRANCH  50  52
ATOM     52  N   UNL     1      -7.129  11.385   1.183  1.00  0.00    -0.339 N 
ATOM     53  C   UNL     1      -8.272  11.684   1.884  1.00  0.00     0.243 C 
ATOM     54  O   UNL     1      -9.138  10.848   2.125  1.00  0.00    -0.273 OA
ATOM     55  H   UNL     1      -6.503  12.143   0.918  1.00  0.00     0.164 HD
BRANCH  53  56
ATOM     56  C   UNL     1      -8.441  13.185   2.196  1.00  0.00     0.182 C 
BRANCH  56  57
ATOM     57  N   UNL     1      -8.828  13.391   3.596  1.00  0.00    -0.344 N 
ATOM     58  C   UNL     1      -8.080  14.150   4.462  1.00  0.00     0.220 C 
ATOM     59  O   UNL     1      -7.004  14.647   4.149  1.00  0.00    -0.275 OA
ATOM     60  H   UNL     1      -9.759  13.083   3.866  1.00  0.00     0.164 HD
BRANCH  58  61
ATOM     61  C   UNL     1      -8.700  14.275   5.842  1.00  0.00     0.100 C 
BRANCH  61  62
ATOM     62  C   UNL     1      -7.982  13.457   6.916  1.00  0.00     0.010 C 
BRANCH  62  63
ATOM     63  C   UNL     1      -7.629  14.253   8.179  1.00  0.00     0.000 C 
BRANCH  63  64
ATOM     64  C   UNL     1      -6.246  13.943   8.748  1.00  0.00    -0.003 C 
ATOM     65  C   UNL     1      -5.277  13.517   7.654  1.00  0.00     0.004 C 
ENDBRANCH  63  64
ENDBRANCH  62  63
ENDBRANCH  61  62
ENDBRANCH  58  61
ENDBRANCH  56  57
BRANCH  56  66
ATOM     66  C   UNL     1      -9.413  13.853   1.225  1.00  0.00     0.157 C 
BRANCH  66  67
ATOM     67  C   UNL     1      -8.717  14.276  -0.036  1.00  0.00     0.305 C 
ATOM     68  O   UNL     1      -7.514  14.267  -0.247  1.00  0.00    -0.252 OA
BRANCH  67  69
ATOM     69  O   UNL     1      -9.582  14.646  -0.999  1.00  0.00    -0.481 OA
ATOM     70  H   UNL     1      -9.516  13.942  -1.678  1.00  0.00     0.296 HD
ENDBRANCH  67  69
ENDBRANCH  66  67
ENDBRANCH  56  66
ENDBRANCH  53  56
ENDBRANCH  50  52
ENDBRANCH  47  50
ENDBRANCH  45  46
BRANCH  45  71
ATOM     71  C   UNL     1      -2.842  12.782   0.025  1.00  0.00     0.037 C 
BRANCH  71  72
ATOM     72  C   UNL     1      -3.958  13.758   0.407  1.00  0.00     0.026 C 
BRANCH  72  73
ATOM     73  C   UNL     1      -4.101  14.876  -0.624  1.00  0.00     0.146 C 
BRANCH  73  74
ATOM     74  N   UNL     1      -2.830  14.998  -1.331  1.00  0.00    -0.254 NA
ATOM     75  C   UNL     1      -2.839  14.869  -2.606  1.00  0.00     0.185 C 
ATOM     76  N   UNL     1      -1.685  14.978  -3.285  1.00  0.00    -0.370 N 
ATOM     77  N   UNL     1      -3.878  14.629  -3.424  1.00  0.00    -0.370 N 
ATOM     78  H   UNL     1      -0.850  15.152  -2.743  1.00  0.00     0.159 HD
ATOM     79  H   UNL     1      -1.591  14.747  -4.258  1.00  0.00     0.159 HD
ATOM     80  H   UNL     1      -4.811  14.528  -3.053  1.00  0.00     0.159 HD
ATOM     81  H   UNL     1      -3.782  14.663  -4.426  1.00  0.00     0.159 HD
ENDBRANCH  73  74
ENDBRANCH  72  73
ENDBRANCH  71  72
ENDBRANCH  45  71
ENDBRANCH   3  45
TORSDOF 20
ENDMDL
MODEL 15
REMARK VINA RESULT:    -6.266     13.351     19.577
REMARK INTER + INTRA:         -23.699
REMARK INTER:                 -18.184
REMARK INTRA:                  -5.516
REMARK UNBOUND:                -5.711
REMARK SMILES CCCCCC(=O)N[C@H](CC(=O)O)C(=O)N[C@H]1C(=O)N[C@H](CCCN=C(N)N)C(=O)N[C@@H]2CC[C@H](O)N(C2=O)[C@@H](CC(C)C)C(=O)N(C)[C@@H](Cc2ccccc2)C(=O)N[C@H](C(C)C)C(=O)O[C@@H]1C
REMARK SMILES IDX 30 1 31 2 29 3 32 5 35 6 37 7 34 8 38 9 33 10 39 11 36 12
REMARK SMILES IDX 40 14 41 15 42 16 43 17 44 18 45 19 46 20 47 21 48 22 49 23
REMARK SMILES IDX 50 24 51 25 52 26 56 27 53 28 55 29 54 30 57 31 58 32 59 33
REMARK SMILES IDX 60 35 61 36 62 37 63 38 64 39 65 40 66 41 67 42 68 43 21 45
REMARK SMILES IDX 20 46 18 47 19 48 17 50 16 52 14 53 15 54 9 56 8 57 6 58
REMARK SMILES IDX 7 59 5 61 4 62 3 63 2 64 1 65 10 66 11 67 12 68 13 69 22 71
REMARK SMILES IDX 23 72 24 73 25 74 26 75 27 76 28 77
REMARK H PARENT 31 4 36 13 59 34 20 49 16 55 8 60 13 70 27 78 27 79 28 80
REMARK H PARENT 28 81
REMARK Flexibility Score:  259.900
ROOT
ATOM      1  O   UNL     1      -5.762  -4.461  -1.263  1.00  0.00    -0.273 OA
ATOM      2  N   UNL     1      -4.674  -3.645  -3.102  1.00  0.00    -0.343 N 
ATOM      3  C   UNL     1      -5.385  -4.613  -2.425  1.00  0.00     0.243 C 
ATOM      4  H   UNL     1      -4.393  -3.799  -4.063  1.00  0.00     0.164 HD
ENDROOT
BRANCH   2   5
ATOM      5  C   UNL     1      -4.233  -2.434  -2.419  1.00  0.00     0.171 C 
ATOM      6  C   UNL     1      -2.977   0.004  -3.359  1.00  0.00     0.214 C 
ATOM      7  N   UNL     1      -2.151  -1.099  -2.925  1.00  0.00    -0.303 N 
ATOM      8  C   UNL     1      -4.318   0.069  -2.644  1.00  0.00     0.057 C 
ATOM      9  C   UNL     1      -2.686  -2.309  -2.513  1.00  0.00     0.247 C 
ATOM     10  C   UNL     1      -5.069  -1.229  -2.846  1.00  0.00     0.040 C 
ATOM     11  O   UNL     1      -1.970  -3.278  -2.226  1.00  0.00    -0.272 OA
BRANCH   6  12
ATOM     12  O   UNL     1      -3.165  -0.120  -4.749  1.00  0.00    -0.373 OA
ATOM     13  H   UNL     1      -3.704   0.648  -5.036  1.00  0.00     0.213 HD
ENDBRANCH   6  12
BRANCH   7  14
ATOM     14  C   UNL     1      -0.689  -0.942  -3.077  1.00  0.00     0.177 C 
BRANCH  14  15
ATOM     15  C   UNL     1      -0.207  -0.629  -4.507  1.00  0.00     0.038 C 
BRANCH  15  16
ATOM     16  C   UNL     1       0.053  -1.789  -5.493  1.00  0.00    -0.015 C 
ATOM     17  C   UNL     1      -0.731  -3.053  -5.129  1.00  0.00     0.007 C 
ATOM     18  C   UNL     1       1.547  -2.137  -5.502  1.00  0.00     0.007 C 
ENDBRANCH  15  16
ENDBRANCH  14  15
BRANCH  14  19
ATOM     19  C   UNL     1      -0.066  -0.359  -1.762  1.00  0.00     0.245 C 
ATOM     20  O   UNL     1      -0.860  -0.040  -0.861  1.00  0.00    -0.272 OA
BRANCH  19  21
ATOM     21  N   UNL     1       1.280  -0.084  -1.602  1.00  0.00    -0.332 N 
ATOM     22  C   UNL     1       2.312  -0.316  -2.598  1.00  0.00     0.147 C 
BRANCH  21  23
ATOM     23  C   UNL     1       1.724   0.489  -0.302  1.00  0.00     0.178 C 
BRANCH  23  24
ATOM     24  C   UNL     1       2.378  -0.524   0.660  1.00  0.00     0.070 C 
BRANCH  24  25
ATOM     25  C   UNL     1       1.666  -0.792   1.966  1.00  0.00    -0.045 A 
ATOM     26  C   UNL     1       0.636   0.048   2.407  1.00  0.00     0.004 A 
ATOM     27  C   UNL     1       2.033  -1.889   2.760  1.00  0.00     0.004 A 
ATOM     28  C   UNL     1      -0.006  -0.196   3.623  1.00  0.00     0.000 A 
ATOM     29  C   UNL     1       1.390  -2.133   3.974  1.00  0.00     0.000 A 
ATOM     30  C   UNL     1       0.373  -1.284   4.406  1.00  0.00     0.000 A 
ENDBRANCH  24  25
ENDBRANCH  23  24
BRANCH  23  31
ATOM     31  C   UNL     1       2.490   1.824  -0.460  1.00  0.00     0.243 C 
ATOM     32  O   UNL     1       2.079   2.777  -1.118  1.00  0.00    -0.273 OA
ATOM     33  N   UNL     1       3.774   1.790   0.055  1.00  0.00    -0.341 N 
ATOM     34  H   UNL     1       4.061   0.966   0.589  1.00  0.00     0.164 HD
BRANCH  33  35
ATOM     35  C   UNL     1       4.722   2.899  -0.087  1.00  0.00     0.194 C 
BRANCH  35  36
ATOM     36  C   UNL     1       6.130   2.472  -0.587  1.00  0.00     0.017 C 
ATOM     37  C   UNL     1       6.606   1.187   0.114  1.00  0.00     0.010 C 
ATOM     38  C   UNL     1       7.203   3.543  -0.359  1.00  0.00     0.010 C 
ENDBRANCH  35  36
BRANCH  35  39
ATOM     39  C   UNL     1       4.803   3.783   1.190  1.00  0.00     0.329 C 
ATOM     40  O   UNL     1       5.152   3.370   2.289  1.00  0.00    -0.250 OA
BRANCH  39  41
ATOM     41  O   UNL     1       4.524   5.097   0.931  1.00  0.00    -0.458 OA
BRANCH  41  42
ATOM     42  C   UNL     1       5.248   6.073   1.718  1.00  0.00     0.205 CG0
ATOM     43  C   UNL     1       4.216   6.870   2.514  1.00  0.00     0.056 C 
ATOM     44  G   UNL     1       6.071   6.961   0.764  1.00  0.00     0.000 G0
ENDBRANCH  41  42
ENDBRANCH  39  41
ENDBRANCH  35  39
ENDBRANCH  33  35
ENDBRANCH  23  31
ENDBRANCH  21  23
ENDBRANCH  19  21
ENDBRANCH  14  19
ENDBRANCH   7  14
ENDBRANCH   2   5
BRANCH   3  45
ATOM     45  C   UNL     1      -5.692  -5.885  -3.228  1.00  0.00     0.171 C 
BRANCH  45  46
ATOM     46  N   UNL     1      -6.711  -6.594  -2.467  1.00  0.00    -0.342 N 
ATOM     47  C   UNL     1      -8.042  -6.550  -2.799  1.00  0.00     0.247 C 
ATOM     48  O   UNL     1      -8.462  -5.971  -3.802  1.00  0.00    -0.273 OA
ATOM     49  H   UNL     1      -6.400  -7.133  -1.660  1.00  0.00     0.164 HD
BRANCH  47  50
ATOM     50  C   UNL     1      -8.982  -7.255  -1.811  1.00  0.00     0.212 CG0
ATOM     51  G   UNL     1      -9.036  -8.746  -2.200  1.00  0.00     0.000 G0
BRANCH  50  52
ATOM     52  N   UNL     1      -8.404  -7.024  -0.490  1.00  0.00    -0.339 N 
ATOM     53  C   UNL     1      -8.699  -5.926   0.281  1.00  0.00     0.243 C 
ATOM     54  O   UNL     1      -9.434  -5.022  -0.106  1.00  0.00    -0.273 OA
ATOM     55  H   UNL     1      -7.701  -7.681  -0.160  1.00  0.00     0.164 HD
BRANCH  53  56
ATOM     56  C   UNL     1      -7.902  -5.853   1.600  1.00  0.00     0.182 C 
BRANCH  56  57
ATOM     57  N   UNL     1      -7.238  -4.553   1.743  1.00  0.00    -0.344 N 
ATOM     58  C   UNL     1      -7.482  -3.716   2.804  1.00  0.00     0.220 C 
ATOM     59  O   UNL     1      -8.322  -3.961   3.663  1.00  0.00    -0.275 OA
ATOM     60  H   UNL     1      -6.466  -4.359   1.112  1.00  0.00     0.164 HD
BRANCH  58  61
ATOM     61  C   UNL     1      -6.642  -2.452   2.778  1.00  0.00     0.100 C 
BRANCH  61  62
ATOM     62  C   UNL     1      -5.841  -2.271   1.489  1.00  0.00     0.010 C 
BRANCH  62  63
ATOM     63  C   UNL     1      -5.955  -0.871   0.871  1.00  0.00     0.000 C 
BRANCH  63  64
ATOM     64  C   UNL     1      -4.970   0.147   1.441  1.00  0.00    -0.003 C 
ATOM     65  C   UNL     1      -3.530  -0.308   1.254  1.00  0.00     0.004 C 
ENDBRANCH  63  64
ENDBRANCH  62  63
ENDBRANCH  61  62
ENDBRANCH  58  61
ENDBRANCH  56  57
BRANCH  56  66
ATOM     66  C   UNL     1      -6.921  -7.018   1.726  1.00  0.00     0.157 C 
BRANCH  66  67
ATOM     67  C   UNL     1      -5.586  -6.672   1.132  1.00  0.00     0.305 C 
ATOM     68  O   UNL     1      -4.716  -5.981   1.639  1.00  0.00    -0.252 OA
BRANCH  67  69
ATOM     69  O   UNL     1      -5.389  -7.262  -0.062  1.00  0.00    -0.481 OA
ATOM     70  H   UNL     1      -4.526  -7.719   0.025  1.00  0.00     0.296 HD
ENDBRANCH  67  69
ENDBRANCH  66  67
ENDBRANCH  56  66
ENDBRANCH  53  56
ENDBRANCH  50  52
ENDBRANCH  47  50
ENDBRANCH  45  46
BRANCH  45  71
ATOM     71  C   UNL     1      -4.423  -6.728  -3.397  1.00  0.00     0.037 C 
BRANCH  71  72
ATOM     72  C   UNL     1      -4.518  -7.677  -4.595  1.00  0.00     0.026 C 
BRANCH  72  73
ATOM     73  C   UNL     1      -3.370  -7.456  -5.577  1.00  0.00     0.146 C 
BRANCH  73  74
ATOM     74  N   UNL     1      -2.131  -7.844  -4.911  1.00  0.00    -0.254 NA
ATOM     75  C   UNL     1      -1.031  -7.364  -5.364  1.00  0.00     0.185 C 
ATOM     76  N   UNL     1       0.125  -7.702  -4.771  1.00  0.00    -0.370 N 
ATOM     77  N   UNL     1      -0.837  -6.526  -6.397  1.00  0.00    -0.370 N 
ATOM     78  H   UNL     1       0.069  -8.338  -3.988  1.00  0.00     0.159 HD
ATOM     79  H   UNL     1       1.028  -7.485  -5.155  1.00  0.00     0.159 HD
ATOM     80  H   UNL     1      -1.619  -6.184  -6.934  1.00  0.00     0.159 HD
ATOM     81  H   UNL     1       0.065  -6.124  -6.588  1.00  0.00     0.159 HD
ENDBRANCH  73  74
ENDBRANCH  72  73
ENDBRANCH  71  72
ENDBRANCH  45  71
ENDBRANCH   3  45
TORSDOF 20
ENDMDL
MODEL 16
REMARK VINA RESULT:    -6.263      4.734      7.246
REMARK INTER + INTRA:         -23.691
REMARK INTER:                 -17.952
REMARK INTRA:                  -5.739
REMARK UNBOUND:                -5.711
REMARK SMILES CCCCCC(=O)N[C@H](CC(=O)O)C(=O)N[C@H]1C(=O)N[C@H](CCCN=C(N)N)C(=O)N[C@@H]2CC[C@H](O)N(C2=O)[C@@H](CC(C)C)C(=O)N(C)[C@@H](Cc2ccccc2)C(=O)N[C@H](C(C)C)C(=O)O[C@@H]1C
REMARK SMILES IDX 30 1 31 2 29 3 32 5 35 6 37 7 34 8 38 9 33 10 39 11 36 12
REMARK SMILES IDX 40 14 41 15 42 16 43 17 44 18 45 19 46 20 47 21 48 22 49 23
REMARK SMILES IDX 50 24 51 25 52 26 56 27 53 28 55 29 54 30 57 31 58 32 59 33
REMARK SMILES IDX 60 35 61 36 62 37 63 38 64 39 65 40 66 41 67 42 68 43 21 45
REMARK SMILES IDX 20 46 18 47 19 48 17 50 16 52 14 53 15 54 9 56 8 57 6 58
REMARK SMILES IDX 7 59 5 61 4 62 3 63 2 64 1 65 10 66 11 67 12 68 13 69 22 71
REMARK SMILES IDX 23 72 24 73 25 74 26 75 27 76 28 77
REMARK H PARENT 31 4 36 13 59 34 20 49 16 55 8 60 13 70 27 78 27 79 28 80
REMARK H PARENT 28 81
REMARK Flexibility Score:  259.900
ROOT
ATOM      1  O   UNL     1      -2.811  11.834  -1.282  1.00  0.00    -0.273 OA
ATOM      2  N   UNL     1      -4.957  12.082  -2.034  1.00  0.00    -0.343 N 
ATOM      3  C   UNL     1      -3.681  12.543  -1.791  1.00  0.00     0.243 C 
ATOM      4  H   UNL     1      -5.642  12.689  -2.467  1.00  0.00     0.164 HD
ENDROOT
BRANCH   2   5
ATOM      5  C   UNL     1      -5.367  10.757  -1.582  1.00  0.00     0.171 C 
ATOM      6  C   UNL     1      -7.963   9.566  -1.089  1.00  0.00     0.214 C 
ATOM      7  N   UNL     1      -7.270  10.229  -0.010  1.00  0.00    -0.303 N 
ATOM      8  C   UNL     1      -7.027   8.945  -2.115  1.00  0.00     0.057 C 
ATOM      9  C   UNL     1      -6.051  10.863  -0.189  1.00  0.00     0.247 C 
ATOM     10  C   UNL     1      -6.114  10.009  -2.685  1.00  0.00     0.040 C 
ATOM     11  O   UNL     1      -5.505  11.503   0.719  1.00  0.00    -0.272 OA
BRANCH   6  12
ATOM     12  O   UNL     1      -8.809  10.511  -1.703  1.00  0.00    -0.373 OA
ATOM     13  H   UNL     1      -8.917  10.235  -2.638  1.00  0.00     0.213 HD
ENDBRANCH   6  12
BRANCH   7  14
ATOM     14  C   UNL     1      -7.985  10.337   1.280  1.00  0.00     0.177 C 
BRANCH  14  15
ATOM     15  C   UNL     1      -9.156  11.338   1.299  1.00  0.00     0.038 C 
BRANCH  15  16
ATOM     16  C   UNL     1      -8.865  12.848   1.452  1.00  0.00    -0.015 C 
ATOM     17  C   UNL     1      -9.924  13.564   2.295  1.00  0.00     0.007 C 
ATOM     18  C   UNL     1      -8.821  13.511   0.070  1.00  0.00     0.007 C 
ENDBRANCH  15  16
ENDBRANCH  14  15
BRANCH  14  19
ATOM     19  C   UNL     1      -7.952   8.964   2.036  1.00  0.00     0.245 C 
ATOM     20  O   UNL     1      -7.189   8.095   1.583  1.00  0.00    -0.272 OA
BRANCH  19  21
ATOM     21  N   UNL     1      -8.793   8.643   3.086  1.00  0.00    -0.332 N 
ATOM     22  C   UNL     1      -9.737   7.540   3.103  1.00  0.00     0.147 C 
BRANCH  21  23
ATOM     23  C   UNL     1      -8.744   9.498   4.304  1.00  0.00     0.178 C 
BRANCH  23  24
ATOM     24  C   UNL     1      -7.573  10.501   4.341  1.00  0.00     0.070 C 
BRANCH  24  25
ATOM     25  C   UNL     1      -7.587  11.535   5.443  1.00  0.00    -0.045 A 
ATOM     26  C   UNL     1      -8.043  12.837   5.199  1.00  0.00     0.004 A 
ATOM     27  C   UNL     1      -7.137  11.204   6.730  1.00  0.00     0.004 A 
ATOM     28  C   UNL     1      -8.037  13.792   6.219  1.00  0.00     0.000 A 
ATOM     29  C   UNL     1      -7.133  12.159   7.748  1.00  0.00     0.000 A 
ATOM     30  C   UNL     1      -7.580  13.453   7.491  1.00  0.00     0.000 A 
ENDBRANCH  24  25
ENDBRANCH  23  24
BRANCH  23  31
ATOM     31  C   UNL     1     -10.122  10.091   4.682  1.00  0.00     0.243 C 
ATOM     32  O   UNL     1     -10.711  10.938   4.015  1.00  0.00    -0.273 OA
ATOM     33  N   UNL     1     -10.557   9.720   5.943  1.00  0.00    -0.341 N 
ATOM     34  H   UNL     1     -10.021   9.014   6.453  1.00  0.00     0.164 HD
BRANCH  33  35
ATOM     35  C   UNL     1     -11.776  10.255   6.556  1.00  0.00     0.194 C 
BRANCH  35  36
ATOM     36  C   UNL     1     -11.517  11.216   7.750  1.00  0.00     0.017 C 
ATOM     37  C   UNL     1     -11.253  12.652   7.264  1.00  0.00     0.010 C 
ATOM     38  C   UNL     1     -10.322  10.798   8.615  1.00  0.00     0.010 C 
ENDBRANCH  35  36
BRANCH  35  39
ATOM     39  C   UNL     1     -12.800   9.143   6.919  1.00  0.00     0.329 C 
ATOM     40  O   UNL     1     -12.496   8.067   7.422  1.00  0.00    -0.250 OA
BRANCH  39  41
ATOM     41  O   UNL     1     -14.092   9.532   6.694  1.00  0.00    -0.458 OA
BRANCH  41  42
ATOM     42  C   UNL     1     -15.086   9.013   7.610  1.00  0.00     0.205 CG0
ATOM     43  C   UNL     1     -16.207   8.408   6.768  1.00  0.00     0.056 C 
ATOM     44  G   UNL     1     -15.578  10.167   8.506  1.00  0.00     0.000 G0
ENDBRANCH  41  42
ENDBRANCH  39  41
ENDBRANCH  35  39
ENDBRANCH  33  35
ENDBRANCH  23  31
ENDBRANCH  21  23
ENDBRANCH  19  21
ENDBRANCH  14  19
ENDBRANCH   7  14
ENDBRANCH   2   5
BRANCH   3  45
ATOM     45  C   UNL     1      -3.412  13.992  -2.219  1.00  0.00     0.171 C 
BRANCH  45  46
ATOM     46  N   UNL     1      -2.127  13.968  -2.904  1.00  0.00    -0.342 N 
ATOM     47  C   UNL     1      -1.946  14.517  -4.149  1.00  0.00     0.247 C 
ATOM     48  O   UNL     1      -2.833  15.131  -4.744  1.00  0.00    -0.273 OA
ATOM     49  H   UNL     1      -1.350  13.519  -2.423  1.00  0.00     0.164 HD
BRANCH  47  50
ATOM     50  C   UNL     1      -0.559  14.288  -4.766  1.00  0.00     0.212 CG0
ATOM     51  G   UNL     1       0.381  15.382  -4.222  1.00  0.00     0.000 G0
BRANCH  50  52
ATOM     52  N   UNL     1      -0.171  12.940  -4.360  1.00  0.00    -0.339 N 
ATOM     53  C   UNL     1      -0.406  11.823  -5.125  1.00  0.00     0.243 C 
ATOM     54  O   UNL     1      -1.012  11.867  -6.192  1.00  0.00    -0.273 OA
ATOM     55  H   UNL     1       0.237  12.824  -3.434  1.00  0.00     0.164 HD
BRANCH  53  56
ATOM     56  C   UNL     1       0.015  10.501  -4.452  1.00  0.00     0.182 C 
BRANCH  56  57
ATOM     57  N   UNL     1       1.342  10.077  -4.909  1.00  0.00    -0.344 N 
ATOM     58  C   UNL     1       2.169   9.293  -4.141  1.00  0.00     0.220 C 
ATOM     59  O   UNL     1       1.889   8.956  -2.996  1.00  0.00    -0.275 OA
ATOM     60  H   UNL     1       1.569  10.248  -5.885  1.00  0.00     0.164 HD
BRANCH  58  61
ATOM     61  C   UNL     1       3.467   8.928  -4.837  1.00  0.00     0.100 C 
BRANCH  61  62
ATOM     62  C   UNL     1       4.716   9.443  -4.122  1.00  0.00     0.010 C 
BRANCH  62  63
ATOM     63  C   UNL     1       5.311  10.717  -4.737  1.00  0.00     0.000 C 
BRANCH  63  64
ATOM     64  C   UNL     1       6.511  11.278  -3.977  1.00  0.00    -0.003 C 
ATOM     65  C   UNL     1       7.404  10.165  -3.449  1.00  0.00     0.004 C 
ENDBRANCH  63  64
ENDBRANCH  62  63
ENDBRANCH  61  62
ENDBRANCH  58  61
ENDBRANCH  56  57
BRANCH  56  66
ATOM     66  C   UNL     1      -1.038   9.412  -4.648  1.00  0.00     0.157 C 
BRANCH  66  67
ATOM     67  C   UNL     1      -1.795   9.152  -3.378  1.00  0.00     0.305 C 
ATOM     68  O   UNL     1      -2.906   8.654  -3.276  1.00  0.00    -0.252 OA
BRANCH  67  69
ATOM     69  O   UNL     1      -1.087   9.488  -2.283  1.00  0.00    -0.481 OA
ATOM     70  H   UNL     1      -1.051  10.467  -2.299  1.00  0.00     0.296 HD
ENDBRANCH  67  69
ENDBRANCH  66  67
ENDBRANCH  56  66
ENDBRANCH  53  56
ENDBRANCH  50  52
ENDBRANCH  47  50
ENDBRANCH  45  46
BRANCH  45  71
ATOM     71  C   UNL     1      -3.383  14.913  -0.994  1.00  0.00     0.037 C 
BRANCH  71  72
ATOM     72  C   UNL     1      -4.783  15.393  -0.601  1.00  0.00     0.026 C 
BRANCH  72  73
ATOM     73  C   UNL     1      -5.400  14.501   0.474  1.00  0.00     0.146 C 
BRANCH  73  74
ATOM     74  N   UNL     1      -5.224  15.166   1.761  1.00  0.00    -0.254 NA
ATOM     75  C   UNL     1      -5.249  14.441   2.818  1.00  0.00     0.185 C 
ATOM     76  N   UNL     1      -5.089  15.024   4.017  1.00  0.00    -0.370 N 
ATOM     77  N   UNL     1      -5.419  13.112   2.927  1.00  0.00    -0.370 N 
ATOM     78  H   UNL     1      -4.962  16.026   4.026  1.00  0.00     0.159 HD
ATOM     79  H   UNL     1      -5.240  14.548   4.889  1.00  0.00     0.159 HD
ATOM     80  H   UNL     1      -5.547  12.541   2.105  1.00  0.00     0.159 HD
ATOM     81  H   UNL     1      -5.304  12.635   3.807  1.00  0.00     0.159 HD
ENDBRANCH  73  74
ENDBRANCH  72  73
ENDBRANCH  71  72
ENDBRANCH  45  71
ENDBRANCH   3  45
TORSDOF 20
ENDMDL
MODEL 17
REMARK VINA RESULT:    -6.256      1.851      2.696
REMARK INTER + INTRA:         -23.668
REMARK INTER:                 -19.904
REMARK INTRA:                  -3.764
REMARK UNBOUND:                -5.711
REMARK SMILES CCCCCC(=O)N[C@H](CC(=O)O)C(=O)N[C@H]1C(=O)N[C@H](CCCN=C(N)N)C(=O)N[C@@H]2CC[C@H](O)N(C2=O)[C@@H](CC(C)C)C(=O)N(C)[C@@H](Cc2ccccc2)C(=O)N[C@H](C(C)C)C(=O)O[C@@H]1C
REMARK SMILES IDX 30 1 31 2 29 3 32 5 35 6 37 7 34 8 38 9 33 10 39 11 36 12
REMARK SMILES IDX 40 14 41 15 42 16 43 17 44 18 45 19 46 20 47 21 48 22 49 23
REMARK SMILES IDX 50 24 51 25 52 26 56 27 53 28 55 29 54 30 57 31 58 32 59 33
REMARK SMILES IDX 60 35 61 36 62 37 63 38 64 39 65 40 66 41 67 42 68 43 21 45
REMARK SMILES IDX 20 46 18 47 19 48 17 50 16 52 14 53 15 54 9 56 8 57 6 58
REMARK SMILES IDX 7 59 5 61 4 62 3 63 2 64 1 65 10 66 11 67 12 68 13 69 22 71
REMARK SMILES IDX 23 72 24 73 25 74 26 75 27 76 28 77
REMARK H PARENT 31 4 36 13 59 34 20 49 16 55 8 60 13 70 27 78 27 79 28 80
REMARK H PARENT 28 81
REMARK Flexibility Score:  259.900
ROOT
ATOM      1  O   UNL     1      -2.247  15.100  -4.744  1.00  0.00    -0.273 OA
ATOM      2  N   UNL     1      -2.078  13.553  -3.069  1.00  0.00    -0.343 N 
ATOM      3  C   UNL     1      -1.651  14.150  -4.236  1.00  0.00     0.243 C 
ATOM      4  H   UNL     1      -1.554  12.782  -2.672  1.00  0.00     0.164 HD
ENDROOT
BRANCH   2   5
ATOM      5  C   UNL     1      -3.335  13.953  -2.446  1.00  0.00     0.171 C 
ATOM      6  C   UNL     1      -4.389  13.629   0.235  1.00  0.00     0.214 C 
ATOM      7  N   UNL     1      -4.666  12.623  -0.764  1.00  0.00    -0.303 N 
ATOM      8  C   UNL     1      -4.214  15.023  -0.348  1.00  0.00     0.057 C 
ATOM      9  C   UNL     1      -4.152  12.690  -2.048  1.00  0.00     0.247 C 
ATOM     10  C   UNL     1      -3.101  15.014  -1.372  1.00  0.00     0.040 C 
ATOM     11  O   UNL     1      -4.322  11.781  -2.872  1.00  0.00    -0.272 OA
BRANCH   6  12
ATOM     12  O   UNL     1      -3.228  13.237   0.930  1.00  0.00    -0.373 OA
ATOM     13  H   UNL     1      -2.540  13.049   0.257  1.00  0.00     0.213 HD
ENDBRANCH   6  12
BRANCH   7  14
ATOM     14  C   UNL     1      -5.410  11.425  -0.320  1.00  0.00     0.177 C 
BRANCH  14  15
ATOM     15  C   UNL     1      -4.535  10.223   0.087  1.00  0.00     0.038 C 
BRANCH  15  16
ATOM     16  C   UNL     1      -4.924   8.805  -0.385  1.00  0.00    -0.015 C 
ATOM     17  C   UNL     1      -3.710   7.985  -0.833  1.00  0.00     0.007 C 
ATOM     18  C   UNL     1      -5.900   8.900  -1.565  1.00  0.00     0.007 C 
ENDBRANCH  15  16
ENDBRANCH  14  15
BRANCH  14  19
ATOM     19  C   UNL     1      -6.753  11.844   0.371  1.00  0.00     0.245 C 
ATOM     20  O   UNL     1      -7.597  12.410  -0.344  1.00  0.00    -0.272 OA
BRANCH  19  21
ATOM     21  N   UNL     1      -6.994  11.721   1.728  1.00  0.00    -0.332 N 
ATOM     22  C   UNL     1      -6.179  12.295   2.784  1.00  0.00     0.147 C 
BRANCH  21  23
ATOM     23  C   UNL     1      -8.178  10.926   2.155  1.00  0.00     0.178 C 
BRANCH  23  24
ATOM     24  C   UNL     1      -7.988   9.397   2.087  1.00  0.00     0.070 C 
BRANCH  24  25
ATOM     25  C   UNL     1      -9.087   8.596   1.427  1.00  0.00    -0.045 A 
ATOM     26  C   UNL     1      -8.799   7.402   0.753  1.00  0.00     0.004 A 
ATOM     27  C   UNL     1     -10.416   9.042   1.478  1.00  0.00     0.004 A 
ATOM     28  C   UNL     1      -9.817   6.677   0.131  1.00  0.00     0.000 A 
ATOM     29  C   UNL     1     -11.433   8.315   0.857  1.00  0.00     0.000 A 
ATOM     30  C   UNL     1     -11.132   7.134   0.182  1.00  0.00     0.000 A 
ENDBRANCH  24  25
ENDBRANCH  23  24
BRANCH  23  31
ATOM     31  C   UNL     1      -8.812  11.445   3.468  1.00  0.00     0.243 C 
ATOM     32  O   UNL     1      -8.686  10.892   4.557  1.00  0.00    -0.273 OA
ATOM     33  N   UNL     1      -9.696  12.495   3.278  1.00  0.00    -0.341 N 
ATOM     34  H   UNL     1      -9.762  12.910   2.345  1.00  0.00     0.164 HD
BRANCH  33  35
ATOM     35  C   UNL     1     -10.500  13.067   4.360  1.00  0.00     0.194 C 
BRANCH  35  36
ATOM     36  C   UNL     1      -9.668  13.563   5.576  1.00  0.00     0.017 C 
ATOM     37  C   UNL     1     -10.476  14.541   6.446  1.00  0.00     0.010 C 
ATOM     38  C   UNL     1      -8.370  14.273   5.171  1.00  0.00     0.010 C 
ENDBRANCH  35  36
BRANCH  35  39
ATOM     39  C   UNL     1     -11.666  12.136   4.796  1.00  0.00     0.329 C 
ATOM     40  O   UNL     1     -12.764  12.110   4.251  1.00  0.00    -0.250 OA
BRANCH  39  41
ATOM     41  O   UNL     1     -11.303  11.283   5.801  1.00  0.00    -0.458 OA
BRANCH  41  42
ATOM     42  C   UNL     1     -12.147  10.124   5.995  1.00  0.00     0.205 CG0
ATOM     43  C   UNL     1     -11.493   8.957   5.259  1.00  0.00     0.056 C 
ATOM     44  G   UNL     1     -13.556  10.446   5.457  1.00  0.00     0.000 G0
ENDBRANCH  41  42
ENDBRANCH  39  41
ENDBRANCH  35  39
ENDBRANCH  33  35
ENDBRANCH  23  31
ENDBRANCH  21  23
ENDBRANCH  19  21
ENDBRANCH  14  19
ENDBRANCH   7  14
ENDBRANCH   2   5
BRANCH   3  45
ATOM     45  C   UNL     1      -0.372  13.562  -4.845  1.00  0.00     0.171 C 
BRANCH  45  46
ATOM     46  N   UNL     1      -0.194  14.244  -6.121  1.00  0.00    -0.342 N 
ATOM     47  C   UNL     1       0.814  15.150  -6.337  1.00  0.00     0.247 C 
ATOM     48  O   UNL     1       1.681  15.398  -5.498  1.00  0.00    -0.273 OA
ATOM     49  H   UNL     1      -0.857  14.025  -6.862  1.00  0.00     0.164 HD
BRANCH  47  50
ATOM     50  C   UNL     1       0.769  15.859  -7.697  1.00  0.00     0.212 CG0
ATOM     51  G   UNL     1       1.550  17.182  -7.561  1.00  0.00     0.000 G0
BRANCH  50  52
ATOM     52  N   UNL     1       1.375  14.926  -8.643  1.00  0.00    -0.339 N 
ATOM     53  C   UNL     1       2.714  14.928  -8.954  1.00  0.00     0.243 C 
ATOM     54  O   UNL     1       3.498  15.754  -8.497  1.00  0.00    -0.273 OA
ATOM     55  H   UNL     1       0.757  14.288  -9.140  1.00  0.00     0.164 HD
BRANCH  53  56
ATOM     56  C   UNL     1       3.106  13.908 -10.042  1.00  0.00     0.182 C 
BRANCH  56  57
ATOM     57  N   UNL     1       4.563  13.832 -10.192  1.00  0.00    -0.344 N 
ATOM     58  C   UNL     1       5.199  12.699 -10.638  1.00  0.00     0.220 C 
ATOM     59  O   UNL     1       4.604  11.653 -10.872  1.00  0.00    -0.275 OA
ATOM     60  H   UNL     1       5.081  14.703 -10.106  1.00  0.00     0.164 HD
BRANCH  58  61
ATOM     61  C   UNL     1       6.701  12.866 -10.770  1.00  0.00     0.100 C 
BRANCH  61  62
ATOM     62  C   UNL     1       7.375  11.758 -11.580  1.00  0.00     0.010 C 
BRANCH  62  63
ATOM     63  C   UNL     1       7.317  11.968 -13.099  1.00  0.00     0.000 C 
BRANCH  63  64
ATOM     64  C   UNL     1       8.061  10.906 -13.907  1.00  0.00    -0.003 C 
ATOM     65  C   UNL     1       7.095   9.952 -14.593  1.00  0.00     0.004 C 
ENDBRANCH  63  64
ENDBRANCH  62  63
ENDBRANCH  61  62
ENDBRANCH  58  61
ENDBRANCH  56  57
BRANCH  56  66
ATOM     66  C   UNL     1       2.406  14.206 -11.367  1.00  0.00     0.157 C 
BRANCH  66  67
ATOM     67  C   UNL     1       2.881  15.504 -11.954  1.00  0.00     0.305 C 
ATOM     68  O   UNL     1       3.859  15.671 -12.667  1.00  0.00    -0.252 OA
BRANCH  67  69
ATOM     69  O   UNL     1       2.063  16.531 -11.654  1.00  0.00    -0.481 OA
ATOM     70  H   UNL     1       1.158  16.161 -11.731  1.00  0.00     0.296 HD
ENDBRANCH  67  69
ENDBRANCH  66  67
ENDBRANCH  56  66
ENDBRANCH  53  56
ENDBRANCH  50  52
ENDBRANCH  47  50
ENDBRANCH  45  46
BRANCH  45  71
ATOM     71  C   UNL     1      -0.515  12.047  -5.029  1.00  0.00     0.037 C 
BRANCH  71  72
ATOM     72  C   UNL     1      -0.483  11.641  -6.504  1.00  0.00     0.026 C 
BRANCH  72  73
ATOM     73  C   UNL     1      -1.671  10.751  -6.866  1.00  0.00     0.146 C 
BRANCH  73  74
ATOM     74  N   UNL     1      -2.093  11.097  -8.220  1.00  0.00    -0.254 NA
ATOM     75  C   UNL     1      -2.778  10.232  -8.873  1.00  0.00     0.185 C 
ATOM     76  N   UNL     1      -3.182  10.522 -10.120  1.00  0.00    -0.370 N 
ATOM     77  N   UNL     1      -3.183   9.009  -8.488  1.00  0.00    -0.370 N 
ATOM     78  H   UNL     1      -2.913  11.422 -10.491  1.00  0.00     0.159 HD
ATOM     79  H   UNL     1      -3.593   9.846 -10.740  1.00  0.00     0.159 HD
ATOM     80  H   UNL     1      -2.955   8.658  -7.570  1.00  0.00     0.159 HD
ATOM     81  H   UNL     1      -3.818   8.463  -9.046  1.00  0.00     0.159 HD
ENDBRANCH  73  74
ENDBRANCH  72  73
ENDBRANCH  71  72
ENDBRANCH  45  71
ENDBRANCH   3  45
TORSDOF 20
ENDMDL
MODEL 18
REMARK VINA RESULT:    -6.249     10.787     16.190
REMARK INTER + INTRA:         -23.651
REMARK INTER:                 -18.297
REMARK INTRA:                  -5.354
REMARK UNBOUND:                -5.711
REMARK SMILES CCCCCC(=O)N[C@H](CC(=O)O)C(=O)N[C@H]1C(=O)N[C@H](CCCN=C(N)N)C(=O)N[C@@H]2CC[C@H](O)N(C2=O)[C@@H](CC(C)C)C(=O)N(C)[C@@H](Cc2ccccc2)C(=O)N[C@H](C(C)C)C(=O)O[C@@H]1C
REMARK SMILES IDX 30 1 31 2 29 3 32 5 35 6 37 7 34 8 38 9 33 10 39 11 36 12
REMARK SMILES IDX 40 14 41 15 42 16 43 17 44 18 45 19 46 20 47 21 48 22 49 23
REMARK SMILES IDX 50 24 51 25 52 26 56 27 53 28 55 29 54 30 57 31 58 32 59 33
REMARK SMILES IDX 60 35 61 36 62 37 63 38 64 39 65 40 66 41 67 42 68 43 21 45
REMARK SMILES IDX 20 46 18 47 19 48 17 50 16 52 14 53 15 54 9 56 8 57 6 58
REMARK SMILES IDX 7 59 5 61 4 62 3 63 2 64 1 65 10 66 11 67 12 68 13 69 22 71
REMARK SMILES IDX 23 72 24 73 25 74 26 75 27 76 28 77
REMARK H PARENT 31 4 36 13 59 34 20 49 16 55 8 60 13 70 27 78 27 79 28 80
REMARK H PARENT 28 81
REMARK Flexibility Score:  259.900
ROOT
ATOM      1  O   UNL     1      -8.038   4.020  -1.845  1.00  0.00    -0.273 OA
ATOM      2  N   UNL     1      -6.346   2.748  -2.710  1.00  0.00    -0.343 N 
ATOM      3  C   UNL     1      -7.159   3.861  -2.692  1.00  0.00     0.243 C 
ATOM      4  H   UNL     1      -5.623   2.658  -3.413  1.00  0.00     0.164 HD
ENDROOT
BRANCH   2   5
ATOM      5  C   UNL     1      -6.577   1.645  -1.785  1.00  0.00     0.171 C 
ATOM      6  C   UNL     1      -4.796  -0.243  -0.493  1.00  0.00     0.214 C 
ATOM      7  N   UNL     1      -5.381  -0.578  -1.770  1.00  0.00    -0.303 N 
ATOM      8  C   UNL     1      -5.672   0.670   0.350  1.00  0.00     0.057 C 
ATOM      9  C   UNL     1      -6.199   0.298  -2.465  1.00  0.00     0.247 C 
ATOM     10  C   UNL     1      -5.971   1.942  -0.414  1.00  0.00     0.040 C 
ATOM     11  O   UNL     1      -6.627   0.038  -3.597  1.00  0.00    -0.272 OA
BRANCH   6  12
ATOM     12  O   UNL     1      -3.547   0.362  -0.738  1.00  0.00    -0.373 OA
ATOM     13  H   UNL     1      -3.400   1.017  -0.022  1.00  0.00     0.213 HD
ENDBRANCH   6  12
BRANCH   7  14
ATOM     14  C   UNL     1      -4.954  -1.850  -2.390  1.00  0.00     0.177 C 
BRANCH  14  15
ATOM     15  C   UNL     1      -3.795  -1.732  -3.399  1.00  0.00     0.038 C 
BRANCH  15  16
ATOM     16  C   UNL     1      -2.456  -2.446  -3.106  1.00  0.00    -0.015 C 
ATOM     17  C   UNL     1      -1.339  -1.464  -2.738  1.00  0.00     0.007 C 
ATOM     18  C   UNL     1      -2.010  -3.239  -4.341  1.00  0.00     0.007 C 
ENDBRANCH  15  16
ENDBRANCH  14  15
BRANCH  14  19
ATOM     19  C   UNL     1      -5.171  -3.041  -1.393  1.00  0.00     0.245 C 
ATOM     20  O   UNL     1      -4.288  -3.223  -0.539  1.00  0.00    -0.272 OA
BRANCH  19  21
ATOM     21  N   UNL     1      -6.215  -3.944  -1.487  1.00  0.00    -0.332 N 
ATOM     22  C   UNL     1      -7.563  -3.728  -0.994  1.00  0.00     0.147 C 
BRANCH  21  23
ATOM     23  C   UNL     1      -5.942  -5.257  -2.135  1.00  0.00     0.178 C 
BRANCH  23  24
ATOM     24  C   UNL     1      -4.816  -5.235  -3.189  1.00  0.00     0.070 C 
BRANCH  24  25
ATOM     25  C   UNL     1      -4.629  -6.482  -4.022  1.00  0.00    -0.045 A 
ATOM     26  C   UNL     1      -5.692  -7.019  -4.759  1.00  0.00     0.004 A 
ATOM     27  C   UNL     1      -3.382  -7.124  -4.063  1.00  0.00     0.004 A 
ATOM     28  C   UNL     1      -5.515  -8.182  -5.512  1.00  0.00     0.000 A 
ATOM     29  C   UNL     1      -3.207  -8.285  -4.818  1.00  0.00     0.000 A 
ATOM     30  C   UNL     1      -4.274  -8.815  -5.540  1.00  0.00     0.000 A 
ENDBRANCH  24  25
ENDBRANCH  23  24
BRANCH  23  31
ATOM     31  C   UNL     1      -5.865  -6.425  -1.124  1.00  0.00     0.243 C 
ATOM     32  O   UNL     1      -5.003  -6.526  -0.254  1.00  0.00    -0.273 OA
ATOM     33  N   UNL     1      -6.749  -7.455  -1.400  1.00  0.00    -0.341 N 
ATOM     34  H   UNL     1      -7.441  -7.315  -2.140  1.00  0.00     0.164 HD
BRANCH  33  35
ATOM     35  C   UNL     1      -6.771  -8.712  -0.647  1.00  0.00     0.194 C 
BRANCH  35  36
ATOM     36  C   UNL     1      -6.183  -9.926  -1.421  1.00  0.00     0.017 C 
ATOM     37  C   UNL     1      -4.680  -9.742  -1.692  1.00  0.00     0.010 C 
ATOM     38  C   UNL     1      -6.867 -10.169  -2.772  1.00  0.00     0.010 C 
ENDBRANCH  35  36
BRANCH  35  39
ATOM     39  C   UNL     1      -8.171  -9.027  -0.050  1.00  0.00     0.329 C 
ATOM     40  O   UNL     1      -9.126  -8.261  -0.099  1.00  0.00    -0.250 OA
BRANCH  39  41
ATOM     41  O   UNL     1      -8.245 -10.293   0.462  1.00  0.00    -0.458 OA
BRANCH  41  42
ATOM     42  C   UNL     1      -9.356 -11.104   0.009  1.00  0.00     0.205 CG0
ATOM     43  C   UNL     1     -10.246 -11.372   1.221  1.00  0.00     0.056 C 
ATOM     44  G   UNL     1      -8.799 -12.400  -0.612  1.00  0.00     0.000 G0
ENDBRANCH  41  42
ENDBRANCH  39  41
ENDBRANCH  35  39
ENDBRANCH  33  35
ENDBRANCH  23  31
ENDBRANCH  21  23
ENDBRANCH  19  21
ENDBRANCH  14  19
ENDBRANCH   7  14
ENDBRANCH   2   5
BRANCH   3  45
ATOM     45  C   UNL     1      -6.878   4.898  -3.787  1.00  0.00     0.171 C 
BRANCH  45  46
ATOM     46  N   UNL     1      -6.075   5.935  -3.152  1.00  0.00    -0.342 N 
ATOM     47  C   UNL     1      -4.819   6.268  -3.593  1.00  0.00     0.247 C 
ATOM     48  O   UNL     1      -4.310   5.770  -4.598  1.00  0.00    -0.273 OA
ATOM     49  H   UNL     1      -6.482   6.413  -2.350  1.00  0.00     0.164 HD
BRANCH  47  50
ATOM     50  C   UNL     1      -4.076   7.293  -2.726  1.00  0.00     0.212 CG0
ATOM     51  G   UNL     1      -2.799   7.708  -3.483  1.00  0.00     0.000 G0
BRANCH  50  52
ATOM     52  N   UNL     1      -5.016   8.394  -2.532  1.00  0.00    -0.339 N 
ATOM     53  C   UNL     1      -4.638   9.715  -2.505  1.00  0.00     0.243 C 
ATOM     54  O   UNL     1      -3.465  10.069  -2.590  1.00  0.00    -0.273 OA
ATOM     55  H   UNL     1      -5.988   8.158  -2.344  1.00  0.00     0.164 HD
BRANCH  53  56
ATOM     56  C   UNL     1      -5.791  10.691  -2.201  1.00  0.00     0.182 C 
BRANCH  56  57
ATOM     57  N   UNL     1      -5.749  11.136  -0.804  1.00  0.00    -0.344 N 
ATOM     58  C   UNL     1      -5.376  12.409  -0.448  1.00  0.00     0.220 C 
ATOM     59  O   UNL     1      -4.983  13.237  -1.262  1.00  0.00    -0.275 OA
ATOM     60  H   UNL     1      -6.162  10.518  -0.111  1.00  0.00     0.164 HD
BRANCH  58  61
ATOM     61  C   UNL     1      -5.462  12.666   1.045  1.00  0.00     0.100 C 
BRANCH  61  62
ATOM     62  C   UNL     1      -4.688  13.902   1.504  1.00  0.00     0.010 C 
BRANCH  62  63
ATOM     63  C   UNL     1      -5.327  14.639   2.688  1.00  0.00     0.000 C 
BRANCH  63  64
ATOM     64  C   UNL     1      -4.754  14.251   4.050  1.00  0.00    -0.003 C 
ATOM     65  C   UNL     1      -5.790  13.531   4.903  1.00  0.00     0.004 C 
ENDBRANCH  63  64
ENDBRANCH  62  63
ENDBRANCH  61  62
ENDBRANCH  58  61
ENDBRANCH  56  57
BRANCH  56  66
ATOM     66  C   UNL     1      -7.146  10.092  -2.574  1.00  0.00     0.157 C 
BRANCH  66  67
ATOM     67  C   UNL     1      -8.085  10.096  -1.402  1.00  0.00     0.305 C 
ATOM     68  O   UNL     1      -8.178   9.240  -0.536  1.00  0.00    -0.252 OA
BRANCH  67  69
ATOM     69  O   UNL     1      -8.831  11.216  -1.348  1.00  0.00    -0.481 OA
ATOM     70  H   UNL     1      -9.457  11.135  -2.099  1.00  0.00     0.296 HD
ENDBRANCH  67  69
ENDBRANCH  66  67
ENDBRANCH  56  66
ENDBRANCH  53  56
ENDBRANCH  50  52
ENDBRANCH  47  50
ENDBRANCH  45  46
BRANCH  45  71
ATOM     71  C   UNL     1      -8.192   5.460  -4.341  1.00  0.00     0.037 C 
BRANCH  71  72
ATOM     72  C   UNL     1      -8.141   5.656  -5.858  1.00  0.00     0.026 C 
BRANCH  72  73
ATOM     73  C   UNL     1      -7.974   4.326  -6.589  1.00  0.00     0.146 C 
BRANCH  73  74
ATOM     74  N   UNL     1      -6.550   4.132  -6.845  1.00  0.00    -0.254 NA
ATOM     75  C   UNL     1      -6.040   2.991  -6.559  1.00  0.00     0.185 C 
ATOM     76  N   UNL     1      -4.732   2.782  -6.783  1.00  0.00    -0.370 N 
ATOM     77  N   UNL     1      -6.637   1.905  -6.040  1.00  0.00    -0.370 N 
ATOM     78  H   UNL     1      -4.205   3.554  -7.167  1.00  0.00     0.159 HD
ATOM     79  H   UNL     1      -4.236   1.973  -6.453  1.00  0.00     0.159 HD
ATOM     80  H   UNL     1      -7.623   1.915  -5.823  1.00  0.00     0.159 HD
ATOM     81  H   UNL     1      -6.158   1.023  -5.965  1.00  0.00     0.159 HD
ENDBRANCH  73  74
ENDBRANCH  72  73
ENDBRANCH  71  72
ENDBRANCH  45  71
ENDBRANCH   3  45
TORSDOF 20
ENDMDL
MODEL 19
REMARK VINA RESULT:    -6.183      2.813     16.417
REMARK INTER + INTRA:         -23.461
REMARK INTER:                 -18.046
REMARK INTRA:                  -5.415
REMARK UNBOUND:                -5.711
REMARK SMILES CCCCCC(=O)N[C@H](CC(=O)O)C(=O)N[C@H]1C(=O)N[C@H](CCCN=C(N)N)C(=O)N[C@@H]2CC[C@H](O)N(C2=O)[C@@H](CC(C)C)C(=O)N(C)[C@@H](Cc2ccccc2)C(=O)N[C@H](C(C)C)C(=O)O[C@@H]1C
REMARK SMILES IDX 30 1 31 2 29 3 32 5 35 6 37 7 34 8 38 9 33 10 39 11 36 12
REMARK SMILES IDX 40 14 41 15 42 16 43 17 44 18 45 19 46 20 47 21 48 22 49 23
REMARK SMILES IDX 50 24 51 25 52 26 56 27 53 28 55 29 54 30 57 31 58 32 59 33
REMARK SMILES IDX 60 35 61 36 62 37 63 38 64 39 65 40 66 41 67 42 68 43 21 45
REMARK SMILES IDX 20 46 18 47 19 48 17 50 16 52 14 53 15 54 9 56 8 57 6 58
REMARK SMILES IDX 7 59 5 61 4 62 3 63 2 64 1 65 10 66 11 67 12 68 13 69 22 71
REMARK SMILES IDX 23 72 24 73 25 74 26 75 27 76 28 77
REMARK H PARENT 31 4 36 13 59 34 20 49 16 55 8 60 13 70 27 78 27 79 28 80
REMARK H PARENT 28 81
REMARK Flexibility Score:  259.900
ROOT
ATOM      1  O   UNL     1      -5.646  10.868  -2.422  1.00  0.00    -0.273 OA
ATOM      2  N   UNL     1      -3.421  10.818  -1.893  1.00  0.00    -0.343 N 
ATOM      3  C   UNL     1      -4.752  10.998  -1.584  1.00  0.00     0.243 C 
ATOM      4  H   UNL     1      -2.714  10.919  -1.175  1.00  0.00     0.164 HD
ENDROOT
BRANCH   2   5
ATOM      5  C   UNL     1      -3.004  10.578  -3.270  1.00  0.00     0.171 C 
ATOM      6  C   UNL     1      -0.556   9.545  -4.430  1.00  0.00     0.214 C 
ATOM      7  N   UNL     1      -0.702  10.968  -4.231  1.00  0.00    -0.303 N 
ATOM      8  C   UNL     1      -1.875   8.835  -4.688  1.00  0.00     0.057 C 
ATOM      9  C   UNL     1      -1.824  11.523  -3.636  1.00  0.00     0.247 C 
ATOM     10  C   UNL     1      -2.825   9.084  -3.537  1.00  0.00     0.040 C 
ATOM     11  O   UNL     1      -1.905  12.734  -3.390  1.00  0.00    -0.272 OA
BRANCH   6  12
ATOM     12  O   UNL     1       0.074   9.014  -3.288  1.00  0.00    -0.373 OA
ATOM     13  H   UNL     1      -0.147   9.604  -2.536  1.00  0.00     0.213 HD
ENDBRANCH   6  12
BRANCH   7  14
ATOM     14  C   UNL     1       0.465  11.815  -4.556  1.00  0.00     0.177 C 
BRANCH  14  15
ATOM     15  C   UNL     1       1.818  11.295  -4.032  1.00  0.00     0.038 C 
BRANCH  15  16
ATOM     16  C   UNL     1       2.893  10.824  -5.037  1.00  0.00    -0.015 C 
ATOM     17  C   UNL     1       3.066   9.303  -5.038  1.00  0.00     0.007 C 
ATOM     18  C   UNL     1       4.244  11.461  -4.687  1.00  0.00     0.007 C 
ENDBRANCH  15  16
ENDBRANCH  14  15
BRANCH  14  19
ATOM     19  C   UNL     1       0.243  12.546  -5.924  1.00  0.00     0.245 C 
ATOM     20  O   UNL     1      -0.178  13.714  -5.873  1.00  0.00    -0.272 OA
BRANCH  19  21
ATOM     21  N   UNL     1       0.380  11.933  -7.157  1.00  0.00    -0.332 N 
ATOM     22  C   UNL     1      -0.699  11.344  -7.930  1.00  0.00     0.147 C 
BRANCH  21  23
ATOM     23  C   UNL     1       1.745  11.854  -7.747  1.00  0.00     0.178 C 
BRANCH  23  24
ATOM     24  C   UNL     1       1.952  10.693  -8.741  1.00  0.00     0.070 C 
BRANCH  24  25
ATOM     25  C   UNL     1       3.228   9.894  -8.609  1.00  0.00    -0.045 A 
ATOM     26  C   UNL     1       4.439  10.523  -8.291  1.00  0.00     0.004 A 
ATOM     27  C   UNL     1       3.218   8.506  -8.810  1.00  0.00     0.004 A 
ATOM     28  C   UNL     1       5.617   9.780  -8.189  1.00  0.00     0.000 A 
ATOM     29  C   UNL     1       4.396   7.764  -8.706  1.00  0.00     0.000 A 
ATOM     30  C   UNL     1       5.595   8.403  -8.398  1.00  0.00     0.000 A 
ENDBRANCH  24  25
ENDBRANCH  23  24
BRANCH  23  31
ATOM     31  C   UNL     1       2.275  13.226  -8.228  1.00  0.00     0.243 C 
ATOM     32  O   UNL     1       2.724  14.090  -7.480  1.00  0.00    -0.273 OA
ATOM     33  N   UNL     1       2.028  13.475  -9.568  1.00  0.00    -0.341 N 
ATOM     34  H   UNL     1       1.646  12.718 -10.140  1.00  0.00     0.164 HD
BRANCH  33  35
ATOM     35  C   UNL     1       2.335  14.755 -10.212  1.00  0.00     0.194 C 
BRANCH  35  36
ATOM     36  C   UNL     1       1.098  15.675 -10.417  1.00  0.00     0.017 C 
ATOM     37  C   UNL     1       0.816  16.521  -9.163  1.00  0.00     0.010 C 
ATOM     38  C   UNL     1      -0.183  14.900 -10.747  1.00  0.00     0.010 C 
ENDBRANCH  35  36
BRANCH  35  39
ATOM     39  C   UNL     1       3.155  14.585 -11.521  1.00  0.00     0.329 C 
ATOM     40  O   UNL     1       3.508  13.502 -11.973  1.00  0.00    -0.250 OA
BRANCH  39  41
ATOM     41  O   UNL     1       3.365  15.774 -12.162  1.00  0.00    -0.458 OA
BRANCH  41  42
ATOM     42  C   UNL     1       3.646  15.698 -13.580  1.00  0.00     0.205 CG0
ATOM     43  C   UNL     1       5.137  15.972 -13.763  1.00  0.00     0.056 C 
ATOM     44  G   UNL     1       2.763  16.727 -14.313  1.00  0.00     0.000 G0
ENDBRANCH  41  42
ENDBRANCH  39  41
ENDBRANCH  35  39
ENDBRANCH  33  35
ENDBRANCH  23  31
ENDBRANCH  21  23
ENDBRANCH  19  21
ENDBRANCH  14  19
ENDBRANCH   7  14
ENDBRANCH   2   5
BRANCH   3  45
ATOM     45  C   UNL     1      -5.045  11.351  -0.120  1.00  0.00     0.171 C 
BRANCH  45  46
ATOM     46  N   UNL     1      -6.373  10.819   0.155  1.00  0.00    -0.342 N 
ATOM     47  C   UNL     1      -6.569   9.648   0.842  1.00  0.00     0.247 C 
ATOM     48  O   UNL     1      -5.646   9.001   1.338  1.00  0.00    -0.273 OA
ATOM     49  H   UNL     1      -7.169  11.353  -0.189  1.00  0.00     0.164 HD
BRANCH  47  50
ATOM     50  C   UNL     1      -8.029   9.181   0.928  1.00  0.00     0.212 CG0
ATOM     51  G   UNL     1      -8.029   7.749   1.499  1.00  0.00     0.000 G0
BRANCH  50  52
ATOM     52  N   UNL     1      -8.697  10.148   1.795  1.00  0.00    -0.339 N 
ATOM     53  C   UNL     1      -8.897   9.946   3.139  1.00  0.00     0.243 C 
ATOM     54  O   UNL     1      -8.574   8.907   3.708  1.00  0.00    -0.273 OA
ATOM     55  H   UNL     1      -9.088  10.981   1.360  1.00  0.00     0.164 HD
BRANCH  53  56
ATOM     56  C   UNL     1      -9.702  11.067   3.828  1.00  0.00     0.182 C 
BRANCH  56  57
ATOM     57  N   UNL     1      -8.830  11.911   4.651  1.00  0.00    -0.344 N 
ATOM     58  C   UNL     1      -8.937  13.280   4.671  1.00  0.00     0.220 C 
ATOM     59  O   UNL     1      -9.715  13.896   3.951  1.00  0.00    -0.275 OA
ATOM     60  H   UNL     1      -8.244  11.439   5.335  1.00  0.00     0.164 HD
BRANCH  58  61
ATOM     61  C   UNL     1      -7.974  13.944   5.638  1.00  0.00     0.100 C 
BRANCH  61  62
ATOM     62  C   UNL     1      -8.483  13.993   7.079  1.00  0.00     0.010 C 
BRANCH  62  63
ATOM     63  C   UNL     1      -9.581  15.035   7.321  1.00  0.00     0.000 C 
BRANCH  63  64
ATOM     64  C   UNL     1      -9.363  15.900   8.562  1.00  0.00    -0.003 C 
ATOM     65  C   UNL     1     -10.498  16.895   8.753  1.00  0.00     0.004 C 
ENDBRANCH  63  64
ENDBRANCH  62  63
ENDBRANCH  61  62
ENDBRANCH  58  61
ENDBRANCH  56  57
BRANCH  56  66
ATOM     66  C   UNL     1     -10.878  10.504   4.624  1.00  0.00     0.157 C 
BRANCH  66  67
ATOM     67  C   UNL     1     -10.638  10.617   6.102  1.00  0.00     0.305 C 
ATOM     68  O   UNL     1      -9.894   9.923   6.779  1.00  0.00    -0.252 OA
BRANCH  67  69
ATOM     69  O   UNL     1     -11.315  11.642   6.653  1.00  0.00    -0.481 OA
ATOM     70  H   UNL     1     -10.964  12.442   6.209  1.00  0.00     0.296 HD
ENDBRANCH  67  69
ENDBRANCH  66  67
ENDBRANCH  56  66
ENDBRANCH  53  56
ENDBRANCH  50  52
ENDBRANCH  47  50
ENDBRANCH  45  46
BRANCH  45  71
ATOM     71  C   UNL     1      -4.991  12.869   0.084  1.00  0.00     0.037 C 
BRANCH  71  72
ATOM     72  C   UNL     1      -5.340  13.270   1.520  1.00  0.00     0.026 C 
BRANCH  72  73
ATOM     73  C   UNL     1      -6.687  13.985   1.590  1.00  0.00     0.146 C 
BRANCH  73  74
ATOM     74  N   UNL     1      -7.310  13.895   0.273  1.00  0.00    -0.254 NA
ATOM     75  C   UNL     1      -8.582  14.041   0.200  1.00  0.00     0.185 C 
ATOM     76  N   UNL     1      -9.183  13.965  -0.998  1.00  0.00    -0.370 N 
ATOM     77  N   UNL     1      -9.463  14.272   1.188  1.00  0.00    -0.370 N 
ATOM     78  H   UNL     1      -8.591  13.786  -1.797  1.00  0.00     0.159 HD
ATOM     79  H   UNL     1     -10.180  13.924  -1.115  1.00  0.00     0.159 HD
ATOM     80  H   UNL     1      -9.153  14.357   2.144  1.00  0.00     0.159 HD
ATOM     81  H   UNL     1     -10.428  14.484   0.996  1.00  0.00     0.159 HD
ENDBRANCH  73  74
ENDBRANCH  72  73
ENDBRANCH  71  72
ENDBRANCH  45  71
ENDBRANCH   3  45
TORSDOF 20
ENDMDL
MODEL 20
REMARK VINA RESULT:    -6.159      4.656      6.796
REMARK INTER + INTRA:         -23.392
REMARK INTER:                 -17.062
REMARK INTRA:                  -6.330
REMARK UNBOUND:                -5.711
REMARK SMILES CCCCCC(=O)N[C@H](CC(=O)O)C(=O)N[C@H]1C(=O)N[C@H](CCCN=C(N)N)C(=O)N[C@@H]2CC[C@H](O)N(C2=O)[C@@H](CC(C)C)C(=O)N(C)[C@@H](Cc2ccccc2)C(=O)N[C@H](C(C)C)C(=O)O[C@@H]1C
REMARK SMILES IDX 30 1 31 2 29 3 32 5 35 6 37 7 34 8 38 9 33 10 39 11 36 12
REMARK SMILES IDX 40 14 41 15 42 16 43 17 44 18 45 19 46 20 47 21 48 22 49 23
REMARK SMILES IDX 50 24 51 25 52 26 56 27 53 28 55 29 54 30 57 31 58 32 59 33
REMARK SMILES IDX 60 35 61 36 62 37 63 38 64 39 65 40 66 41 67 42 68 43 21 45
REMARK SMILES IDX 20 46 18 47 19 48 17 50 16 52 14 53 15 54 9 56 8 57 6 58
REMARK SMILES IDX 7 59 5 61 4 62 3 63 2 64 1 65 10 66 11 67 12 68 13 69 22 71
REMARK SMILES IDX 23 72 24 73 25 74 26 75 27 76 28 77
REMARK H PARENT 31 4 36 13 59 34 20 49 16 55 8 60 13 70 27 78 27 79 28 80
REMARK H PARENT 28 81
REMARK Flexibility Score:  259.900
ROOT
ATOM      1  O   UNL     1      -5.877  15.209  -0.520  1.00  0.00    -0.273 OA
ATOM      2  N   UNL     1      -5.078  14.203   1.371  1.00  0.00    -0.343 N 
ATOM      3  C   UNL     1      -4.951  14.662   0.078  1.00  0.00     0.243 C 
ATOM      4  H   UNL     1      -4.290  13.771   1.838  1.00  0.00     0.164 HD
ENDROOT
BRANCH   2   5
ATOM      5  C   UNL     1      -6.370  14.241   2.049  1.00  0.00     0.171 C 
ATOM      6  C   UNL     1      -7.516  12.647   4.183  1.00  0.00     0.214 C 
ATOM      7  N   UNL     1      -7.725  12.251   2.809  1.00  0.00    -0.303 N 
ATOM      8  C   UNL     1      -7.361  14.150   4.358  1.00  0.00     0.057 C 
ATOM      9  C   UNL     1      -7.163  12.938   1.745  1.00  0.00     0.247 C 
ATOM     10  C   UNL     1      -6.209  14.648   3.513  1.00  0.00     0.040 C 
ATOM     11  O   UNL     1      -7.275  12.542   0.577  1.00  0.00    -0.272 OA
BRANCH   6  12
ATOM     12  O   UNL     1      -6.372  11.976   4.656  1.00  0.00    -0.373 OA
ATOM     13  H   UNL     1      -6.600  11.023   4.711  1.00  0.00     0.213 HD
ENDBRANCH   6  12
BRANCH   7  14
ATOM     14  C   UNL     1      -8.449  10.983   2.580  1.00  0.00     0.177 C 
BRANCH  14  15
ATOM     15  C   UNL     1      -7.555   9.741   2.397  1.00  0.00     0.038 C 
BRANCH  15  16
ATOM     16  C   UNL     1      -7.256   9.222   0.972  1.00  0.00    -0.015 C 
ATOM     17  C   UNL     1      -8.464   9.350   0.039  1.00  0.00     0.007 C 
ATOM     18  C   UNL     1      -6.851   7.744   1.033  1.00  0.00     0.007 C 
ENDBRANCH  15  16
ENDBRANCH  14  15
BRANCH  14  19
ATOM     19  C   UNL     1      -9.830  11.004   3.321  1.00  0.00     0.245 C 
ATOM     20  O   UNL     1     -10.664  11.835   2.924  1.00  0.00    -0.272 OA
BRANCH  19  21
ATOM     21  N   UNL     1     -10.118  10.241   4.438  1.00  0.00    -0.332 N 
ATOM     22  C   UNL     1      -9.146   9.759   5.403  1.00  0.00     0.147 C 
BRANCH  21  23
ATOM     23  C   UNL     1     -11.539   9.866   4.678  1.00  0.00     0.178 C 
BRANCH  23  24
ATOM     24  C   UNL     1     -11.849   8.366   4.502  1.00  0.00     0.070 C 
BRANCH  24  25
ATOM     25  C   UNL     1     -11.361   7.706   3.233  1.00  0.00    -0.045 A 
ATOM     26  C   UNL     1     -10.371   6.716   3.274  1.00  0.00     0.004 A 
ATOM     27  C   UNL     1     -11.893   8.082   1.990  1.00  0.00     0.004 A 
ATOM     28  C   UNL     1      -9.913   6.123   2.095  1.00  0.00     0.000 A 
ATOM     29  C   UNL     1     -11.435   7.488   0.813  1.00  0.00     0.000 A 
ATOM     30  C   UNL     1     -10.443   6.511   0.867  1.00  0.00     0.000 A 
ENDBRANCH  24  25
ENDBRANCH  23  24
BRANCH  23  31
ATOM     31  C   UNL     1     -12.125  10.507   5.958  1.00  0.00     0.243 C 
ATOM     32  O   UNL     1     -12.182  11.718   6.156  1.00  0.00    -0.273 OA
ATOM     33  N   UNL     1     -12.415   9.589   6.953  1.00  0.00    -0.341 N 
ATOM     34  H   UNL     1     -12.343   8.593   6.730  1.00  0.00     0.164 HD
BRANCH  33  35
ATOM     35  C   UNL     1     -12.868   9.977   8.292  1.00  0.00     0.194 C 
BRANCH  35  36
ATOM     36  C   UNL     1     -11.877   9.604   9.430  1.00  0.00     0.017 C 
ATOM     37  C   UNL     1     -11.109   8.312   9.102  1.00  0.00     0.010 C 
ATOM     38  C   UNL     1     -12.564   9.397  10.786  1.00  0.00     0.010 C 
ENDBRANCH  35  36
BRANCH  35  39
ATOM     39  C   UNL     1     -14.313   9.494   8.598  1.00  0.00     0.329 C 
ATOM     40  O   UNL     1     -14.641   8.316   8.672  1.00  0.00    -0.250 OA
BRANCH  39  41
ATOM     41  O   UNL     1     -15.163  10.532   8.864  1.00  0.00    -0.458 OA
BRANCH  41  42
ATOM     42  C   UNL     1     -16.394  10.193   9.546  1.00  0.00     0.205 CG0
ATOM     43  C   UNL     1     -17.440  11.228   9.134  1.00  0.00     0.056 C 
ATOM     44  G   UNL     1     -16.131  10.192  11.065  1.00  0.00     0.000 G0
ENDBRANCH  41  42
ENDBRANCH  39  41
ENDBRANCH  35  39
ENDBRANCH  33  35
ENDBRANCH  23  31
ENDBRANCH  21  23
ENDBRANCH  19  21
ENDBRANCH  14  19
ENDBRANCH   7  14
ENDBRANCH   2   5
BRANCH   3  45
ATOM     45  C   UNL     1      -3.568  14.464  -0.556  1.00  0.00     0.171 C 
BRANCH  45  46
ATOM     46  N   UNL     1      -3.818  14.137  -1.953  1.00  0.00    -0.342 N 
ATOM     47  C   UNL     1      -3.026  14.604  -2.972  1.00  0.00     0.247 C 
ATOM     48  O   UNL     1      -2.008  15.269  -2.777  1.00  0.00    -0.273 OA
ATOM     49  H   UNL     1      -4.619  13.541  -2.156  1.00  0.00     0.164 HD
BRANCH  47  50
ATOM     50  C   UNL     1      -3.516  14.259  -4.386  1.00  0.00     0.212 CG0
ATOM     51  G   UNL     1      -3.100  15.414  -5.319  1.00  0.00     0.000 G0
BRANCH  50  52
ATOM     52  N   UNL     1      -2.878  12.988  -4.720  1.00  0.00    -0.339 N 
ATOM     53  C   UNL     1      -1.585  12.888  -5.173  1.00  0.00     0.243 C 
ATOM     54  O   UNL     1      -0.879  13.871  -5.384  1.00  0.00    -0.273 OA
ATOM     55  H   UNL     1      -3.448  12.146  -4.673  1.00  0.00     0.164 HD
BRANCH  53  56
ATOM     56  C   UNL     1      -1.159  11.453  -5.543  1.00  0.00     0.182 C 
BRANCH  56  57
ATOM     57  N   UNL     1      -2.051  10.884  -6.559  1.00  0.00    -0.344 N 
ATOM     58  C   UNL     1      -1.793  10.983  -7.904  1.00  0.00     0.220 C 
ATOM     59  O   UNL     1      -0.841  11.613  -8.352  1.00  0.00    -0.275 OA
ATOM     60  H   UNL     1      -2.792  10.270  -6.229  1.00  0.00     0.164 HD
BRANCH  58  61
ATOM     61  C   UNL     1      -2.818  10.272  -8.767  1.00  0.00     0.100 C 
BRANCH  61  62
ATOM     62  C   UNL     1      -2.625   8.756  -8.832  1.00  0.00     0.010 C 
BRANCH  62  63
ATOM     63  C   UNL     1      -3.715   8.018  -9.620  1.00  0.00     0.000 C 
BRANCH  63  64
ATOM     64  C   UNL     1      -3.181   6.969 -10.594  1.00  0.00    -0.003 C 
ATOM     65  C   UNL     1      -1.715   7.209 -10.920  1.00  0.00     0.004 C 
ENDBRANCH  63  64
ENDBRANCH  62  63
ENDBRANCH  61  62
ENDBRANCH  58  61
ENDBRANCH  56  57
BRANCH  56  66
ATOM     66  C   UNL     1      -1.054  10.563  -4.305  1.00  0.00     0.157 C 
BRANCH  66  67
ATOM     67  C   UNL     1      -1.728   9.240  -4.527  1.00  0.00     0.305 C 
ATOM     68  O   UNL     1      -1.257   8.263  -5.090  1.00  0.00    -0.252 OA
BRANCH  67  69
ATOM     69  O   UNL     1      -2.957   9.193  -3.979  1.00  0.00    -0.481 OA
ATOM     70  H   UNL     1      -3.541   8.879  -4.701  1.00  0.00     0.296 HD
ENDBRANCH  67  69
ENDBRANCH  66  67
ENDBRANCH  56  66
ENDBRANCH  53  56
ENDBRANCH  50  52
ENDBRANCH  47  50
ENDBRANCH  45  46
BRANCH  45  71
ATOM     71  C   UNL     1      -2.808  13.342   0.160  1.00  0.00     0.037 C 
BRANCH  71  72
ATOM     72  C   UNL     1      -2.839  12.031  -0.629  1.00  0.00     0.026 C 
BRANCH  72  73
ATOM     73  C   UNL     1      -3.914  11.084  -0.100  1.00  0.00     0.146 C 
BRANCH  73  74
ATOM     74  N   UNL     1      -4.271  10.166  -1.177  1.00  0.00    -0.254 NA
ATOM     75  C   UNL     1      -5.313  10.435  -1.873  1.00  0.00     0.185 C 
ATOM     76  N   UNL     1      -5.666   9.610  -2.872  1.00  0.00    -0.370 N 
ATOM     77  N   UNL     1      -6.160  11.473  -1.759  1.00  0.00    -0.370 N 
ATOM     78  H   UNL     1      -5.084   8.798  -3.021  1.00  0.00     0.159 HD
ATOM     79  H   UNL     1      -6.541   9.676  -3.361  1.00  0.00     0.159 HD
ATOM     80  H   UNL     1      -6.017  12.178  -1.052  1.00  0.00     0.159 HD
ATOM     81  H   UNL     1      -6.882  11.643  -2.440  1.00  0.00     0.159 HD
ENDBRANCH  73  74
ENDBRANCH  72  73
ENDBRANCH  71  72
ENDBRANCH  45  71
ENDBRANCH   3  45
TORSDOF 20
ENDMDL
MODEL 21
REMARK VINA RESULT:    -6.157     13.068     18.666
REMARK INTER + INTRA:         -23.386
REMARK INTER:                 -18.898
REMARK INTRA:                  -4.488
REMARK UNBOUND:                -5.711
REMARK SMILES CCCCCC(=O)N[C@H](CC(=O)O)C(=O)N[C@H]1C(=O)N[C@H](CCCN=C(N)N)C(=O)N[C@@H]2CC[C@H](O)N(C2=O)[C@@H](CC(C)C)C(=O)N(C)[C@@H](Cc2ccccc2)C(=O)N[C@H](C(C)C)C(=O)O[C@@H]1C
REMARK SMILES IDX 30 1 31 2 29 3 32 5 35 6 37 7 34 8 38 9 33 10 39 11 36 12
REMARK SMILES IDX 40 14 41 15 42 16 43 17 44 18 45 19 46 20 47 21 48 22 49 23
REMARK SMILES IDX 50 24 51 25 52 26 56 27 53 28 55 29 54 30 57 31 58 32 59 33
REMARK SMILES IDX 60 35 61 36 62 37 63 38 64 39 65 40 66 41 67 42 68 43 21 45
REMARK SMILES IDX 20 46 18 47 19 48 17 50 16 52 14 53 15 54 9 56 8 57 6 58
REMARK SMILES IDX 7 59 5 61 4 62 3 63 2 64 1 65 10 66 11 67 12 68 13 69 22 71
REMARK SMILES IDX 23 72 24 73 25 74 26 75 27 76 28 77
REMARK H PARENT 31 4 36 13 59 34 20 49 16 55 8 60 13 70 27 78 27 79 28 80
REMARK H PARENT 28 81
REMARK Flexibility Score:  259.900
ROOT
ATOM      1  O   UNL     1      -8.027   0.027  -4.906  1.00  0.00    -0.273 OA
ATOM      2  N   UNL     1      -6.782  -0.515  -3.066  1.00  0.00    -0.343 N 
ATOM      3  C   UNL     1      -7.611   0.319  -3.784  1.00  0.00     0.243 C 
ATOM      4  H   UNL     1      -6.471  -0.249  -2.139  1.00  0.00     0.164 HD
ENDROOT
BRANCH   2   5
ATOM      5  C   UNL     1      -6.262  -1.740  -3.664  1.00  0.00     0.171 C 
ATOM      6  C   UNL     1      -4.786  -3.985  -2.575  1.00  0.00     0.214 C 
ATOM      7  N   UNL     1      -4.065  -2.860  -3.123  1.00  0.00    -0.303 N 
ATOM      8  C   UNL     1      -6.136  -4.215  -3.235  1.00  0.00     0.057 C 
ATOM      9  C   UNL     1      -4.708  -1.734  -3.612  1.00  0.00     0.247 C 
ATOM     10  C   UNL     1      -6.985  -2.969  -3.113  1.00  0.00     0.040 C 
ATOM     11  O   UNL     1      -4.082  -0.739  -4.001  1.00  0.00    -0.272 OA
BRANCH   6  12
ATOM     12  O   UNL     1      -4.946  -3.762  -1.193  1.00  0.00    -0.373 OA
ATOM     13  H   UNL     1      -4.082  -3.448  -0.850  1.00  0.00     0.213 HD
ENDBRANCH   6  12
BRANCH   7  14
ATOM     14  C   UNL     1      -2.592  -2.888  -3.009  1.00  0.00     0.177 C 
BRANCH  14  15
ATOM     15  C   UNL     1      -1.996  -1.920  -1.968  1.00  0.00     0.038 C 
BRANCH  15  16
ATOM     16  C   UNL     1      -0.681  -1.175  -2.287  1.00  0.00    -0.015 C 
ATOM     17  C   UNL     1      -0.482   0.063  -1.407  1.00  0.00     0.007 C 
ATOM     18  C   UNL     1      -0.682  -0.726  -3.754  1.00  0.00     0.007 C 
ENDBRANCH  15  16
ENDBRANCH  14  15
BRANCH  14  19
ATOM     19  C   UNL     1      -2.049  -4.323  -3.329  1.00  0.00     0.245 C 
ATOM     20  O   UNL     1      -2.066  -5.147  -2.400  1.00  0.00    -0.272 OA
BRANCH  19  21
ATOM     21  N   UNL     1      -1.462  -4.675  -4.531  1.00  0.00    -0.332 N 
ATOM     22  C   UNL     1      -0.898  -3.749  -5.497  1.00  0.00     0.147 C 
BRANCH  21  23
ATOM     23  C   UNL     1      -1.407  -6.121  -4.882  1.00  0.00     0.178 C 
BRANCH  23  24
ATOM     24  C   UNL     1      -2.548  -6.607  -5.799  1.00  0.00     0.070 C 
BRANCH  24  25
ATOM     25  C   UNL     1      -3.439  -7.705  -5.266  1.00  0.00    -0.045 A 
ATOM     26  C   UNL     1      -3.899  -8.727  -6.106  1.00  0.00     0.004 A 
ATOM     27  C   UNL     1      -3.822  -7.713  -3.916  1.00  0.00     0.004 A 
ATOM     28  C   UNL     1      -4.736  -9.728  -5.610  1.00  0.00     0.000 A 
ATOM     29  C   UNL     1      -4.657  -8.716  -3.422  1.00  0.00     0.000 A 
ATOM     30  C   UNL     1      -5.116  -9.721  -4.270  1.00  0.00     0.000 A 
ENDBRANCH  24  25
ENDBRANCH  23  24
BRANCH  23  31
ATOM     31  C   UNL     1       0.008  -6.588  -5.299  1.00  0.00     0.243 C 
ATOM     32  O   UNL     1       1.041  -6.246  -4.728  1.00  0.00    -0.273 OA
ATOM     33  N   UNL     1       0.030  -7.284  -6.496  1.00  0.00    -0.341 N 
ATOM     34  H   UNL     1      -0.862  -7.535  -6.928  1.00  0.00     0.164 HD
BRANCH  33  35
ATOM     35  C   UNL     1       1.271  -7.719  -7.145  1.00  0.00     0.194 C 
BRANCH  35  36
ATOM     36  C   UNL     1       1.444  -7.198  -8.599  1.00  0.00     0.017 C 
ATOM     37  C   UNL     1       2.904  -6.807  -8.883  1.00  0.00     0.010 C 
ATOM     38  C   UNL     1       0.573  -5.974  -8.910  1.00  0.00     0.010 C 
ENDBRANCH  35  36
BRANCH  35  39
ATOM     39  C   UNL     1       1.488  -9.255  -7.049  1.00  0.00     0.329 C 
ATOM     40  O   UNL     1       0.585 -10.081  -7.114  1.00  0.00    -0.250 OA
BRANCH  39  41
ATOM     41  O   UNL     1       2.812  -9.589  -6.971  1.00  0.00    -0.458 OA
BRANCH  41  42
ATOM     42  C   UNL     1       3.229 -10.740  -7.742  1.00  0.00     0.205 CG0
ATOM     43  C   UNL     1       4.681 -11.035  -7.370  1.00  0.00     0.056 C 
ATOM     44  G   UNL     1       3.058 -10.417  -9.240  1.00  0.00     0.000 G0
ENDBRANCH  41  42
ENDBRANCH  39  41
ENDBRANCH  35  39
ENDBRANCH  33  35
ENDBRANCH  23  31
ENDBRANCH  21  23
ENDBRANCH  19  21
ENDBRANCH  14  19
ENDBRANCH   7  14
ENDBRANCH   2   5
BRANCH   3  45
ATOM     45  C   UNL     1      -7.997   1.627  -3.080  1.00  0.00     0.171 C 
BRANCH  45  46
ATOM     46  N   UNL     1      -9.091   2.187  -3.862  1.00  0.00    -0.342 N 
ATOM     47  C   UNL     1     -10.262   2.616  -3.289  1.00  0.00     0.247 C 
ATOM     48  O   UNL     1     -10.445   2.627  -2.071  1.00  0.00    -0.273 OA
ATOM     49  H   UNL     1      -8.959   2.249  -4.870  1.00  0.00     0.164 HD
BRANCH  47  50
ATOM     50  C   UNL     1     -11.347   3.059  -4.281  1.00  0.00     0.212 CG0
ATOM     51  G   UNL     1     -12.351   3.941  -3.512  1.00  0.00     0.000 G0
BRANCH  50  52
ATOM     52  N   UNL     1     -10.639   3.777  -5.337  1.00  0.00    -0.339 N 
ATOM     53  C   UNL     1     -11.091   4.953  -5.886  1.00  0.00     0.243 C 
ATOM     54  O   UNL     1     -12.160   5.465  -5.564  1.00  0.00    -0.273 OA
ATOM     55  H   UNL     1      -9.803   3.345  -5.725  1.00  0.00     0.164 HD
BRANCH  53  56
ATOM     56  C   UNL     1     -10.222   5.479  -7.045  1.00  0.00     0.182 C 
BRANCH  56  57
ATOM     57  N   UNL     1     -10.989   5.539  -8.294  1.00  0.00    -0.344 N 
ATOM     58  C   UNL     1     -11.359   6.728  -8.874  1.00  0.00     0.220 C 
ATOM     59  O   UNL     1     -11.138   7.817  -8.355  1.00  0.00    -0.275 OA
ATOM     60  H   UNL     1     -11.103   4.669  -8.806  1.00  0.00     0.164 HD
BRANCH  58  61
ATOM     61  C   UNL     1     -12.094   6.552 -10.190  1.00  0.00     0.100 C 
BRANCH  61  62
ATOM     62  C   UNL     1     -11.263   5.864 -11.273  1.00  0.00     0.010 C 
BRANCH  62  63
ATOM     63  C   UNL     1     -11.068   6.704 -12.542  1.00  0.00     0.000 C 
BRANCH  63  64
ATOM     64  C   UNL     1     -12.207   6.586 -13.553  1.00  0.00    -0.003 C 
ATOM     65  C   UNL     1     -12.919   7.918 -13.745  1.00  0.00     0.004 C 
ENDBRANCH  63  64
ENDBRANCH  62  63
ENDBRANCH  61  62
ENDBRANCH  58  61
ENDBRANCH  56  57
BRANCH  56  66
ATOM     66  C   UNL     1      -8.938   4.666  -7.196  1.00  0.00     0.157 C 
BRANCH  66  67
ATOM     67  C   UNL     1      -8.691   4.301  -8.632  1.00  0.00     0.305 C 
ATOM     68  O   UNL     1      -8.189   5.008  -9.492  1.00  0.00    -0.252 OA
BRANCH  67  69
ATOM     69  O   UNL     1      -9.044   3.030  -8.905  1.00  0.00    -0.481 OA
ATOM     70  H   UNL     1      -9.944   2.934  -8.526  1.00  0.00     0.296 HD
ENDBRANCH  67  69
ENDBRANCH  66  67
ENDBRANCH  56  66
ENDBRANCH  53  56
ENDBRANCH  50  52
ENDBRANCH  47  50
ENDBRANCH  45  46
BRANCH  45  71
ATOM     71  C   UNL     1      -6.797   2.578  -3.025  1.00  0.00     0.037 C 
BRANCH  71  72
ATOM     72  C   UNL     1      -6.750   3.517  -4.232  1.00  0.00     0.026 C 
BRANCH  72  73
ATOM     73  C   UNL     1      -5.373   3.513  -4.893  1.00  0.00     0.146 C 
BRANCH  73  74
ATOM     74  N   UNL     1      -4.636   4.671  -4.397  1.00  0.00    -0.254 NA
ATOM     75  C   UNL     1      -4.559   5.702  -5.155  1.00  0.00     0.185 C 
ATOM     76  N   UNL     1      -3.889   6.783  -4.727  1.00  0.00    -0.370 N 
ATOM     77  N   UNL     1      -5.073   5.887  -6.384  1.00  0.00    -0.370 N 
ATOM     78  H   UNL     1      -3.464   6.725  -3.812  1.00  0.00     0.159 HD
ATOM     79  H   UNL     1      -3.665   7.566  -5.316  1.00  0.00     0.159 HD
ATOM     80  H   UNL     1      -5.607   5.158  -6.833  1.00  0.00     0.159 HD
ATOM     81  H   UNL     1      -5.046   6.785  -6.838  1.00  0.00     0.159 HD
ENDBRANCH  73  74
ENDBRANCH  72  73
ENDBRANCH  71  72
ENDBRANCH  45  71
ENDBRANCH   3  45
TORSDOF 20
ENDMDL
MODEL 22
REMARK VINA RESULT:    -6.122      6.092      9.301
REMARK INTER + INTRA:         -23.285
REMARK INTER:                 -19.046
REMARK INTRA:                  -4.240
REMARK UNBOUND:                -5.711
REMARK SMILES CCCCCC(=O)N[C@H](CC(=O)O)C(=O)N[C@H]1C(=O)N[C@H](CCCN=C(N)N)C(=O)N[C@@H]2CC[C@H](O)N(C2=O)[C@@H](CC(C)C)C(=O)N(C)[C@@H](Cc2ccccc2)C(=O)N[C@H](C(C)C)C(=O)O[C@@H]1C
REMARK SMILES IDX 30 1 31 2 29 3 32 5 35 6 37 7 34 8 38 9 33 10 39 11 36 12
REMARK SMILES IDX 40 14 41 15 42 16 43 17 44 18 45 19 46 20 47 21 48 22 49 23
REMARK SMILES IDX 50 24 51 25 52 26 56 27 53 28 55 29 54 30 57 31 58 32 59 33
REMARK SMILES IDX 60 35 61 36 62 37 63 38 64 39 65 40 66 41 67 42 68 43 21 45
REMARK SMILES IDX 20 46 18 47 19 48 17 50 16 52 14 53 15 54 9 56 8 57 6 58
REMARK SMILES IDX 7 59 5 61 4 62 3 63 2 64 1 65 10 66 11 67 12 68 13 69 22 71
REMARK SMILES IDX 23 72 24 73 25 74 26 75 27 76 28 77
REMARK H PARENT 31 4 36 13 59 34 20 49 16 55 8 60 13 70 27 78 27 79 28 80
REMARK H PARENT 28 81
REMARK Flexibility Score:  259.900
ROOT
ATOM      1  O   UNL     1      -3.931   7.401  -2.403  1.00  0.00    -0.273 OA
ATOM      2  N   UNL     1      -4.869   9.467  -2.689  1.00  0.00    -0.343 N 
ATOM      3  C   UNL     1      -3.895   8.519  -2.918  1.00  0.00     0.243 C 
ATOM      4  H   UNL     1      -4.815  10.372  -3.141  1.00  0.00     0.164 HD
ENDROOT
BRANCH   2   5
ATOM      5  C   UNL     1      -5.932   9.221  -1.720  1.00  0.00     0.171 C 
ATOM      6  C   UNL     1      -7.999  10.916  -0.599  1.00  0.00     0.214 C 
ATOM      7  N   UNL     1      -6.725  10.810   0.074  1.00  0.00    -0.303 N 
ATOM      8  C   UNL     1      -8.382   9.660  -1.364  1.00  0.00     0.057 C 
ATOM      9  C   UNL     1      -5.678  10.058  -0.434  1.00  0.00     0.247 C 
ATOM     10  C   UNL     1      -7.307   9.329  -2.377  1.00  0.00     0.040 C 
ATOM     11  O   UNL     1      -4.562  10.041   0.102  1.00  0.00    -0.272 OA
BRANCH   6  12
ATOM     12  O   UNL     1      -7.935  12.023  -1.469  1.00  0.00    -0.373 OA
ATOM     13  H   UNL     1      -6.993  12.290  -1.525  1.00  0.00     0.213 HD
ENDBRANCH   6  12
BRANCH   7  14
ATOM     14  C   UNL     1      -6.524  11.659   1.267  1.00  0.00     0.177 C 
BRANCH  14  15
ATOM     15  C   UNL     1      -5.432  12.738   1.127  1.00  0.00     0.038 C 
BRANCH  15  16
ATOM     16  C   UNL     1      -5.799  14.224   1.336  1.00  0.00    -0.015 C 
ATOM     17  C   UNL     1      -5.058  15.150   0.368  1.00  0.00     0.007 C 
ATOM     18  C   UNL     1      -5.451  14.648   2.768  1.00  0.00     0.007 C 
ENDBRANCH  15  16
ENDBRANCH  14  15
BRANCH  14  19
ATOM     19  C   UNL     1      -7.873  11.830   2.047  1.00  0.00     0.245 C 
ATOM     20  O   UNL     1      -8.723  12.578   1.537  1.00  0.00    -0.272 OA
BRANCH  19  21
ATOM     21  N   UNL     1      -8.112  11.292   3.299  1.00  0.00    -0.332 N 
ATOM     22  C   UNL     1      -7.405  10.167   3.883  1.00  0.00     0.147 C 
BRANCH  21  23
ATOM     23  C   UNL     1      -9.192  11.903   4.123  1.00  0.00     0.178 C 
BRANCH  23  24
ATOM     24  C   UNL     1     -10.051  10.894   4.913  1.00  0.00     0.070 C 
BRANCH  24  25
ATOM     25  C   UNL     1     -11.273  10.340   4.219  1.00  0.00    -0.045 A 
ATOM     26  C   UNL     1     -11.205   9.893   2.893  1.00  0.00     0.004 A 
ATOM     27  C   UNL     1     -12.500  10.270   4.895  1.00  0.00     0.004 A 
ATOM     28  C   UNL     1     -12.343   9.399   2.253  1.00  0.00     0.000 A 
ATOM     29  C   UNL     1     -13.637   9.774   4.255  1.00  0.00     0.000 A 
ATOM     30  C   UNL     1     -13.558   9.342   2.933  1.00  0.00     0.000 A 
ENDBRANCH  24  25
ENDBRANCH  23  24
BRANCH  23  31
ATOM     31  C   UNL     1      -8.709  13.126   4.939  1.00  0.00     0.243 C 
ATOM     32  O   UNL     1      -8.604  14.260   4.479  1.00  0.00    -0.273 OA
ATOM     33  N   UNL     1      -8.225  12.798   6.194  1.00  0.00    -0.341 N 
ATOM     34  H   UNL     1      -8.336  11.834   6.520  1.00  0.00     0.164 HD
BRANCH  33  35
ATOM     35  C   UNL     1      -7.608  13.777   7.094  1.00  0.00     0.194 C 
BRANCH  35  36
ATOM     36  C   UNL     1      -6.136  13.451   7.473  1.00  0.00     0.017 C 
ATOM     37  C   UNL     1      -5.855  11.941   7.378  1.00  0.00     0.010 C 
ATOM     38  C   UNL     1      -5.764  13.899   8.892  1.00  0.00     0.010 C 
ENDBRANCH  35  36
BRANCH  35  39
ATOM     39  C   UNL     1      -8.479  14.069   8.347  1.00  0.00     0.329 C 
ATOM     40  O   UNL     1      -8.807  13.220   9.168  1.00  0.00    -0.250 OA
BRANCH  39  41
ATOM     41  O   UNL     1      -8.769  15.398   8.481  1.00  0.00    -0.458 OA
BRANCH  41  42
ATOM     42  C   UNL     1      -8.810  15.912   9.834  1.00  0.00     0.205 CG0
ATOM     43  C   UNL     1      -7.683  16.935   9.966  1.00  0.00     0.056 C 
ATOM     44  G   UNL     1      -8.654  14.732  10.813  1.00  0.00     0.000 G0
ENDBRANCH  41  42
ENDBRANCH  39  41
ENDBRANCH  35  39
ENDBRANCH  33  35
ENDBRANCH  23  31
ENDBRANCH  21  23
ENDBRANCH  19  21
ENDBRANCH  14  19
ENDBRANCH   7  14
ENDBRANCH   2   5
BRANCH   3  45
ATOM     45  C   UNL     1      -2.776   8.946  -3.876  1.00  0.00     0.171 C 
BRANCH  45  46
ATOM     46  N   UNL     1      -2.640   7.856  -4.834  1.00  0.00    -0.342 N 
ATOM     47  C   UNL     1      -2.158   8.048  -6.105  1.00  0.00     0.247 C 
ATOM     48  O   UNL     1      -1.738   9.135  -6.503  1.00  0.00    -0.273 OA
ATOM     49  H   UNL     1      -2.925   6.928  -4.527  1.00  0.00     0.164 HD
BRANCH  47  50
ATOM     50  C   UNL     1      -2.205   6.810  -7.012  1.00  0.00     0.212 CG0
ATOM     51  G   UNL     1      -1.009   5.912  -6.638  1.00  0.00     0.000 G0
BRANCH  50  52
ATOM     52  N   UNL     1      -3.499   6.186  -6.752  1.00  0.00    -0.339 N 
ATOM     53  C   UNL     1      -4.493   6.086  -7.695  1.00  0.00     0.243 C 
ATOM     54  O   UNL     1      -4.388   6.566  -8.820  1.00  0.00    -0.273 OA
ATOM     55  H   UNL     1      -3.689   5.868  -5.803  1.00  0.00     0.164 HD
BRANCH  53  56
ATOM     56  C   UNL     1      -5.802   5.465  -7.164  1.00  0.00     0.182 C 
BRANCH  56  57
ATOM     57  N   UNL     1      -5.551   4.163  -6.540  1.00  0.00    -0.344 N 
ATOM     58  C   UNL     1      -6.210   3.750  -5.408  1.00  0.00     0.220 C 
ATOM     59  O   UNL     1      -6.997   4.467  -4.799  1.00  0.00    -0.275 OA
ATOM     60  H   UNL     1      -4.985   3.501  -7.066  1.00  0.00     0.164 HD
BRANCH  58  61
ATOM     61  C   UNL     1      -5.835   2.345  -4.972  1.00  0.00     0.100 C 
BRANCH  61  62
ATOM     62  C   UNL     1      -4.431   2.238  -4.378  1.00  0.00     0.010 C 
BRANCH  62  63
ATOM     63  C   UNL     1      -4.253   1.075  -3.393  1.00  0.00     0.000 C 
BRANCH  63  64
ATOM     64  C   UNL     1      -2.809   0.604  -3.234  1.00  0.00    -0.003 C 
ATOM     65  C   UNL     1      -2.559  -0.689  -3.997  1.00  0.00     0.004 C 
ENDBRANCH  63  64
ENDBRANCH  62  63
ENDBRANCH  61  62
ENDBRANCH  58  61
ENDBRANCH  56  57
BRANCH  56  66
ATOM     66  C   UNL     1      -6.867   5.386  -8.257  1.00  0.00     0.157 C 
BRANCH  66  67
ATOM     67  C   UNL     1      -7.953   6.398  -8.031  1.00  0.00     0.305 C 
ATOM     68  O   UNL     1      -8.465   7.123  -8.871  1.00  0.00    -0.252 OA
BRANCH  67  69
ATOM     69  O   UNL     1      -8.384   6.410  -6.755  1.00  0.00    -0.481 OA
ATOM     70  H   UNL     1      -7.829   7.085  -6.311  1.00  0.00     0.296 HD
ENDBRANCH  67  69
ENDBRANCH  66  67
ENDBRANCH  56  66
ENDBRANCH  53  56
ENDBRANCH  50  52
ENDBRANCH  47  50
ENDBRANCH  45  46
BRANCH  45  71
ATOM     71  C   UNL     1      -1.474   9.184  -3.104  1.00  0.00     0.037 C 
BRANCH  71  72
ATOM     72  C   UNL     1      -0.938  10.604  -3.302  1.00  0.00     0.026 C 
BRANCH  72  73
ATOM     73  C   UNL     1      -2.005  11.529  -3.884  1.00  0.00     0.146 C 
BRANCH  73  74
ATOM     74  N   UNL     1      -1.755  12.875  -3.377  1.00  0.00    -0.254 NA
ATOM     75  C   UNL     1      -2.636  13.397  -2.606  1.00  0.00     0.185 C 
ATOM     76  N   UNL     1      -2.433  14.634  -2.122  1.00  0.00    -0.370 N 
ATOM     77  N   UNL     1      -3.799  12.877  -2.176  1.00  0.00    -0.370 N 
ATOM     78  H   UNL     1      -1.584  15.101  -2.403  1.00  0.00     0.159 HD
ATOM     79  H   UNL     1      -3.138  15.160  -1.635  1.00  0.00     0.159 HD
ATOM     80  H   UNL     1      -4.081  11.950  -2.457  1.00  0.00     0.159 HD
ATOM     81  H   UNL     1      -4.357  13.338  -1.477  1.00  0.00     0.159 HD
ENDBRANCH  73  74
ENDBRANCH  72  73
ENDBRANCH  71  72
ENDBRANCH  45  71
ENDBRANCH   3  45
TORSDOF 20
ENDMDL
MODEL 23
REMARK VINA RESULT:    -6.115      9.494     12.973
REMARK INTER + INTRA:         -23.264
REMARK INTER:                 -16.487
REMARK INTRA:                  -6.778
REMARK UNBOUND:                -5.711
REMARK SMILES CCCCCC(=O)N[C@H](CC(=O)O)C(=O)N[C@H]1C(=O)N[C@H](CCCN=C(N)N)C(=O)N[C@@H]2CC[C@H](O)N(C2=O)[C@@H](CC(C)C)C(=O)N(C)[C@@H](Cc2ccccc2)C(=O)N[C@H](C(C)C)C(=O)O[C@@H]1C
REMARK SMILES IDX 30 1 31 2 29 3 32 5 35 6 37 7 34 8 38 9 33 10 39 11 36 12
REMARK SMILES IDX 40 14 41 15 42 16 43 17 44 18 45 19 46 20 47 21 48 22 49 23
REMARK SMILES IDX 50 24 51 25 52 26 56 27 53 28 55 29 54 30 57 31 58 32 59 33
REMARK SMILES IDX 60 35 61 36 62 37 63 38 64 39 65 40 66 41 67 42 68 43 21 45
REMARK SMILES IDX 20 46 18 47 19 48 17 50 16 52 14 53 15 54 9 56 8 57 6 58
REMARK SMILES IDX 7 59 5 61 4 62 3 63 2 64 1 65 10 66 11 67 12 68 13 69 22 71
REMARK SMILES IDX 23 72 24 73 25 74 26 75 27 76 28 77
REMARK H PARENT 31 4 36 13 59 34 20 49 16 55 8 60 13 70 27 78 27 79 28 80
REMARK H PARENT 28 81
REMARK Flexibility Score:  259.900
ROOT
ATOM      1  O   UNL     1      -8.375   2.974  -0.862  1.00  0.00    -0.273 OA
ATOM      2  N   UNL     1      -9.252   4.976  -1.532  1.00  0.00    -0.343 N 
ATOM      3  C   UNL     1      -8.583   3.792  -1.757  1.00  0.00     0.243 C 
ATOM      4  H   UNL     1      -9.417   5.620  -2.297  1.00  0.00     0.164 HD
ENDROOT
BRANCH   2   5
ATOM      5  C   UNL     1      -9.640   5.364  -0.181  1.00  0.00     0.171 C 
ATOM      6  C   UNL     1     -10.698   7.825   0.929  1.00  0.00     0.214 C 
ATOM      7  N   UNL     1      -9.269   7.616   0.900  1.00  0.00    -0.303 N 
ATOM      8  C   UNL     1     -11.493   6.535   1.052  1.00  0.00     0.057 C 
ATOM      9  C   UNL     1      -8.696   6.486   0.338  1.00  0.00     0.247 C 
ATOM     10  C   UNL     1     -11.146   5.608  -0.092  1.00  0.00     0.040 C 
ATOM     11  O   UNL     1      -7.469   6.354   0.239  1.00  0.00    -0.272 OA
BRANCH   6  12
ATOM     12  O   UNL     1     -11.056   8.513  -0.247  1.00  0.00    -0.373 OA
ATOM     13  H   UNL     1     -12.036   8.524  -0.287  1.00  0.00     0.213 HD
ENDBRANCH   6  12
BRANCH   7  14
ATOM     14  C   UNL     1      -8.418   8.731   1.365  1.00  0.00     0.177 C 
BRANCH  14  15
ATOM     15  C   UNL     1      -8.113   9.809   0.308  1.00  0.00     0.038 C 
BRANCH  15  16
ATOM     16  C   UNL     1      -6.894   9.636  -0.626  1.00  0.00    -0.015 C 
ATOM     17  C   UNL     1      -5.596   9.390   0.148  1.00  0.00     0.007 C 
ATOM     18  C   UNL     1      -6.713  10.896  -1.482  1.00  0.00     0.007 C 
ENDBRANCH  15  16
ENDBRANCH  14  15
BRANCH  14  19
ATOM     19  C   UNL     1      -8.662   9.000   2.890  1.00  0.00     0.245 C 
ATOM     20  O   UNL     1      -8.533   8.031   3.657  1.00  0.00    -0.272 OA
BRANCH  19  21
ATOM     21  N   UNL     1      -9.112  10.205   3.399  1.00  0.00    -0.332 N 
ATOM     22  C   UNL     1     -10.503  10.561   3.616  1.00  0.00     0.147 C 
BRANCH  21  23
ATOM     23  C   UNL     1      -8.096  11.238   3.746  1.00  0.00     0.178 C 
BRANCH  23  24
ATOM     24  C   UNL     1      -8.263  12.581   3.007  1.00  0.00     0.070 C 
BRANCH  24  25
ATOM     25  C   UNL     1      -7.167  12.979   2.046  1.00  0.00    -0.045 A 
ATOM     26  C   UNL     1      -5.876  12.451   2.172  1.00  0.00     0.004 A 
ATOM     27  C   UNL     1      -7.428  13.892   1.013  1.00  0.00     0.004 A 
ATOM     28  C   UNL     1      -4.864  12.837   1.291  1.00  0.00     0.000 A 
ATOM     29  C   UNL     1      -6.416  14.275   0.132  1.00  0.00     0.000 A 
ATOM     30  C   UNL     1      -5.133  13.750   0.274  1.00  0.00     0.000 A 
ENDBRANCH  24  25
ENDBRANCH  23  24
BRANCH  23  31
ATOM     31  C   UNL     1      -7.853  11.357   5.269  1.00  0.00     0.243 C 
ATOM     32  O   UNL     1      -8.371  10.623   6.107  1.00  0.00    -0.273 OA
ATOM     33  N   UNL     1      -7.141  12.489   5.628  1.00  0.00    -0.341 N 
ATOM     34  H   UNL     1      -6.739  13.066   4.885  1.00  0.00     0.164 HD
BRANCH  33  35
ATOM     35  C   UNL     1      -6.895  12.870   7.022  1.00  0.00     0.194 C 
BRANCH  35  36
ATOM     36  C   UNL     1      -7.943  13.860   7.604  1.00  0.00     0.017 C 
ATOM     37  C   UNL     1      -8.795  13.194   8.698  1.00  0.00     0.010 C 
ATOM     38  C   UNL     1      -8.905  14.413   6.545  1.00  0.00     0.010 C 
ENDBRANCH  35  36
BRANCH  35  39
ATOM     39  C   UNL     1      -5.439  13.358   7.260  1.00  0.00     0.329 C 
ATOM     40  O   UNL     1      -4.913  14.275   6.640  1.00  0.00    -0.250 OA
BRANCH  39  41
ATOM     41  O   UNL     1      -4.836  12.708   8.301  1.00  0.00    -0.458 OA
BRANCH  41  42
ATOM     42  C   UNL     1      -4.280  13.544   9.344  1.00  0.00     0.205 CG0
ATOM     43  C   UNL     1      -5.422  13.911  10.290  1.00  0.00     0.056 C 
ATOM     44  G   UNL     1      -3.636  14.782   8.689  1.00  0.00     0.000 G0
ENDBRANCH  41  42
ENDBRANCH  39  41
ENDBRANCH  35  39
ENDBRANCH  33  35
ENDBRANCH  23  31
ENDBRANCH  21  23
ENDBRANCH  19  21
ENDBRANCH  14  19
ENDBRANCH   7  14
ENDBRANCH   2   5
BRANCH   3  45
ATOM     45  C   UNL     1      -8.134   3.556  -3.206  1.00  0.00     0.171 C 
BRANCH  45  46
ATOM     46  N   UNL     1      -7.905   2.122  -3.318  1.00  0.00    -0.342 N 
ATOM     47  C   UNL     1      -8.197   1.416  -4.458  1.00  0.00     0.247 C 
ATOM     48  O   UNL     1      -8.604   1.952  -5.489  1.00  0.00    -0.273 OA
ATOM     49  H   UNL     1      -7.516   1.647  -2.505  1.00  0.00     0.164 HD
BRANCH  47  50
ATOM     50  C   UNL     1      -8.006  -0.103  -4.349  1.00  0.00     0.212 CG0
ATOM     51  G   UNL     1      -8.383  -0.721  -5.710  1.00  0.00     0.000 G0
BRANCH  50  52
ATOM     52  N   UNL     1      -6.602  -0.296  -3.997  1.00  0.00    -0.339 N 
ATOM     53  C   UNL     1      -6.180  -1.154  -3.011  1.00  0.00     0.243 C 
ATOM     54  O   UNL     1      -6.961  -1.790  -2.309  1.00  0.00    -0.273 OA
ATOM     55  H   UNL     1      -5.913   0.287  -4.468  1.00  0.00     0.164 HD
BRANCH  53  56
ATOM     56  C   UNL     1      -4.659  -1.124  -2.761  1.00  0.00     0.182 C 
BRANCH  56  57
ATOM     57  N   UNL     1      -4.342  -0.395  -1.529  1.00  0.00    -0.344 N 
ATOM     58  C   UNL     1      -3.989  -1.034  -0.365  1.00  0.00     0.220 C 
ATOM     59  O   UNL     1      -3.985  -2.255  -0.254  1.00  0.00    -0.275 OA
ATOM     60  H   UNL     1      -4.235   0.614  -1.605  1.00  0.00     0.164 HD
BRANCH  58  61
ATOM     61  C   UNL     1      -3.648  -0.080   0.765  1.00  0.00     0.100 C 
BRANCH  61  62
ATOM     62  C   UNL     1      -4.229  -0.494   2.117  1.00  0.00     0.010 C 
BRANCH  62  63
ATOM     63  C   UNL     1      -4.664   0.683   3.000  1.00  0.00     0.000 C 
BRANCH  63  64
ATOM     64  C   UNL     1      -3.825   0.861   4.264  1.00  0.00    -0.003 C 
ATOM     65  C   UNL     1      -3.935  -0.351   5.179  1.00  0.00     0.004 C 
ENDBRANCH  63  64
ENDBRANCH  62  63
ENDBRANCH  61  62
ENDBRANCH  58  61
ENDBRANCH  56  57
BRANCH  56  66
ATOM     66  C   UNL     1      -3.904  -0.571  -3.968  1.00  0.00     0.157 C 
BRANCH  66  67
ATOM     67  C   UNL     1      -3.362   0.802  -3.689  1.00  0.00     0.305 C 
ATOM     68  O   UNL     1      -2.257   1.077  -3.247  1.00  0.00    -0.252 OA
BRANCH  67  69
ATOM     69  O   UNL     1      -4.228   1.774  -4.032  1.00  0.00    -0.481 OA
ATOM     70  H   UNL     1      -4.691   1.428  -4.825  1.00  0.00     0.296 HD
ENDBRANCH  67  69
ENDBRANCH  66  67
ENDBRANCH  56  66
ENDBRANCH  53  56
ENDBRANCH  50  52
ENDBRANCH  47  50
ENDBRANCH  45  46
BRANCH  45  71
ATOM     71  C   UNL     1      -6.864   4.357  -3.509  1.00  0.00     0.037 C 
BRANCH  71  72
ATOM     72  C   UNL     1      -6.973   5.134  -4.823  1.00  0.00     0.026 C 
BRANCH  72  73
ATOM     73  C   UNL     1      -5.756   4.899  -5.716  1.00  0.00     0.146 C 
BRANCH  73  74
ATOM     74  N   UNL     1      -6.239   4.575  -7.055  1.00  0.00    -0.254 NA
ATOM     75  C   UNL     1      -6.199   3.349  -7.426  1.00  0.00     0.185 C 
ATOM     76  N   UNL     1      -6.637   3.020  -8.652  1.00  0.00    -0.370 N 
ATOM     77  N   UNL     1      -5.762   2.274  -6.747  1.00  0.00    -0.370 N 
ATOM     78  H   UNL     1      -6.977   3.773  -9.234  1.00  0.00     0.159 HD
ATOM     79  H   UNL     1      -6.504   2.113  -9.063  1.00  0.00     0.159 HD
ATOM     80  H   UNL     1      -5.406   2.370  -5.808  1.00  0.00     0.159 HD
ATOM     81  H   UNL     1      -5.887   1.340  -7.100  1.00  0.00     0.159 HD
ENDBRANCH  73  74
ENDBRANCH  72  73
ENDBRANCH  71  72
ENDBRANCH  45  71
ENDBRANCH   3  45
TORSDOF 20
ENDMDL
MODEL 24
REMARK VINA RESULT:    -6.097     12.943     18.846
REMARK INTER + INTRA:         -23.214
REMARK INTER:                 -15.979
REMARK INTRA:                  -7.235
REMARK UNBOUND:                -5.711
REMARK SMILES CCCCCC(=O)N[C@H](CC(=O)O)C(=O)N[C@H]1C(=O)N[C@H](CCCN=C(N)N)C(=O)N[C@@H]2CC[C@H](O)N(C2=O)[C@@H](CC(C)C)C(=O)N(C)[C@@H](Cc2ccccc2)C(=O)N[C@H](C(C)C)C(=O)O[C@@H]1C
REMARK SMILES IDX 30 1 31 2 29 3 32 5 35 6 37 7 34 8 38 9 33 10 39 11 36 12
REMARK SMILES IDX 40 14 41 15 42 16 43 17 44 18 45 19 46 20 47 21 48 22 49 23
REMARK SMILES IDX 50 24 51 25 52 26 56 27 53 28 55 29 54 30 57 31 58 32 59 33
REMARK SMILES IDX 60 35 61 36 62 37 63 38 64 39 65 40 66 41 67 42 68 43 21 45
REMARK SMILES IDX 20 46 18 47 19 48 17 50 16 52 14 53 15 54 9 56 8 57 6 58
REMARK SMILES IDX 7 59 5 61 4 62 3 63 2 64 1 65 10 66 11 67 12 68 13 69 22 71
REMARK SMILES IDX 23 72 24 73 25 74 26 75 27 76 28 77
REMARK H PARENT 31 4 36 13 59 34 20 49 16 55 8 60 13 70 27 78 27 79 28 80
REMARK H PARENT 28 81
REMARK Flexibility Score:  259.900
ROOT
ATOM      1  O   UNL     1      -4.646  -3.917  -3.025  1.00  0.00    -0.273 OA
ATOM      2  N   UNL     1      -5.611  -2.228  -1.822  1.00  0.00    -0.343 N 
ATOM      3  C   UNL     1      -5.290  -3.550  -2.041  1.00  0.00     0.243 C 
ATOM      4  H   UNL     1      -6.130  -1.961  -0.995  1.00  0.00     0.164 HD
ENDROOT
BRANCH   2   5
ATOM      5  C   UNL     1      -5.300  -1.213  -2.823  1.00  0.00     0.171 C 
ATOM      6  C   UNL     1      -5.862   1.627  -2.981  1.00  0.00     0.214 C 
ATOM      7  N   UNL     1      -6.797   0.685  -3.552  1.00  0.00    -0.303 N 
ATOM      8  C   UNL     1      -4.423   1.137  -3.006  1.00  0.00     0.057 C 
ATOM      9  C   UNL     1      -6.615  -0.686  -3.467  1.00  0.00     0.247 C 
ATOM     10  C   UNL     1      -4.318  -0.181  -2.270  1.00  0.00     0.040 C 
ATOM     11  O   UNL     1      -7.462  -1.487  -3.882  1.00  0.00    -0.272 OA
BRANCH   6  12
ATOM     12  O   UNL     1      -6.270   1.890  -1.659  1.00  0.00    -0.373 OA
ATOM     13  H   UNL     1      -7.195   2.215  -1.703  1.00  0.00     0.213 HD
ENDBRANCH   6  12
BRANCH   7  14
ATOM     14  C   UNL     1      -8.048   1.238  -4.112  1.00  0.00     0.177 C 
BRANCH  14  15
ATOM     15  C   UNL     1      -9.259   1.217  -3.159  1.00  0.00     0.038 C 
BRANCH  15  16
ATOM     16  C   UNL     1     -10.535   0.447  -3.567  1.00  0.00    -0.015 C 
ATOM     17  C   UNL     1     -10.722  -0.842  -2.762  1.00  0.00     0.007 C 
ATOM     18  C   UNL     1     -10.465   0.078  -5.054  1.00  0.00     0.007 C 
ENDBRANCH  15  16
ENDBRANCH  14  15
BRANCH  14  19
ATOM     19  C   UNL     1      -7.727   2.372  -5.146  1.00  0.00     0.245 C 
ATOM     20  O   UNL     1      -6.897   2.103  -6.031  1.00  0.00    -0.272 OA
BRANCH  19  21
ATOM     21  N   UNL     1      -8.222   3.660  -5.056  1.00  0.00    -0.332 N 
ATOM     22  C   UNL     1      -7.579   4.765  -4.367  1.00  0.00     0.147 C 
BRANCH  21  23
ATOM     23  C   UNL     1      -9.530   3.950  -5.706  1.00  0.00     0.178 C 
BRANCH  23  24
ATOM     24  C   UNL     1     -10.545   4.691  -4.812  1.00  0.00     0.070 C 
BRANCH  24  25
ATOM     25  C   UNL     1     -11.697   3.883  -4.261  1.00  0.00    -0.045 A 
ATOM     26  C   UNL     1     -11.941   3.829  -2.883  1.00  0.00     0.004 A 
ATOM     27  C   UNL     1     -12.538   3.168  -5.128  1.00  0.00     0.004 A 
ATOM     28  C   UNL     1     -12.998   3.066  -2.381  1.00  0.00     0.000 A 
ATOM     29  C   UNL     1     -13.594   2.407  -4.624  1.00  0.00     0.000 A 
ATOM     30  C   UNL     1     -13.821   2.354  -3.250  1.00  0.00     0.000 A 
ENDBRANCH  24  25
ENDBRANCH  23  24
BRANCH  23  31
ATOM     31  C   UNL     1      -9.380   4.523  -7.135  1.00  0.00     0.243 C 
ATOM     32  O   UNL     1      -8.300   4.726  -7.684  1.00  0.00    -0.273 OA
ATOM     33  N   UNL     1     -10.573   4.965  -7.682  1.00  0.00    -0.341 N 
ATOM     34  H   UNL     1     -11.440   4.772  -7.175  1.00  0.00     0.164 HD
BRANCH  33  35
ATOM     35  C   UNL     1     -10.654   5.651  -8.974  1.00  0.00     0.194 C 
BRANCH  35  36
ATOM     36  C   UNL     1     -11.056   7.149  -8.874  1.00  0.00     0.017 C 
ATOM     37  C   UNL     1      -9.991   7.965  -8.122  1.00  0.00     0.010 C 
ATOM     38  C   UNL     1     -12.394   7.369  -8.157  1.00  0.00     0.010 C 
ENDBRANCH  35  36
BRANCH  35  39
ATOM     39  C   UNL     1     -11.528   4.883 -10.005  1.00  0.00     0.329 C 
ATOM     40  O   UNL     1     -12.069   3.807  -9.779  1.00  0.00    -0.250 OA
BRANCH  39  41
ATOM     41  O   UNL     1     -11.699   5.584 -11.167  1.00  0.00    -0.458 OA
BRANCH  41  42
ATOM     42  C   UNL     1     -13.063   5.750 -11.621  1.00  0.00     0.205 CG0
ATOM     43  C   UNL     1     -13.156   5.136 -13.016  1.00  0.00     0.056 C 
ATOM     44  G   UNL     1     -13.404   7.254 -11.614  1.00  0.00     0.000 G0
ENDBRANCH  41  42
ENDBRANCH  39  41
ENDBRANCH  35  39
ENDBRANCH  33  35
ENDBRANCH  23  31
ENDBRANCH  21  23
ENDBRANCH  19  21
ENDBRANCH  14  19
ENDBRANCH   7  14
ENDBRANCH   2   5
BRANCH   3  45
ATOM     45  C   UNL     1      -5.770  -4.530  -0.962  1.00  0.00     0.171 C 
BRANCH  45  46
ATOM     46  N   UNL     1      -5.152  -5.808  -1.288  1.00  0.00    -0.342 N 
ATOM     47  C   UNL     1      -4.433  -6.534  -0.372  1.00  0.00     0.247 C 
ATOM     48  O   UNL     1      -4.319  -6.196   0.807  1.00  0.00    -0.273 OA
ATOM     49  H   UNL     1      -5.270  -6.153  -2.239  1.00  0.00     0.164 HD
BRANCH  47  50
ATOM     50  C   UNL     1      -3.752  -7.792  -0.929  1.00  0.00     0.212 CG0
ATOM     51  G   UNL     1      -3.580  -8.785   0.238  1.00  0.00     0.000 G0
BRANCH  50  52
ATOM     52  N   UNL     1      -4.641  -8.284  -1.979  1.00  0.00    -0.339 N 
ATOM     53  C   UNL     1      -5.499  -9.342  -1.808  1.00  0.00     0.243 C 
ATOM     54  O   UNL     1      -5.547  -9.995  -0.769  1.00  0.00    -0.273 OA
ATOM     55  H   UNL     1      -4.567  -7.855  -2.899  1.00  0.00     0.164 HD
BRANCH  53  56
ATOM     56  C   UNL     1      -6.274  -9.734  -3.083  1.00  0.00     0.182 C 
BRANCH  56  57
ATOM     57  N   UNL     1      -6.048  -8.761  -4.156  1.00  0.00    -0.344 N 
ATOM     58  C   UNL     1      -5.282  -9.046  -5.259  1.00  0.00     0.220 C 
ATOM     59  O   UNL     1      -4.675 -10.104  -5.390  1.00  0.00    -0.275 OA
ATOM     60  H   UNL     1      -6.611  -7.915  -4.136  1.00  0.00     0.164 HD
BRANCH  58  61
ATOM     61  C   UNL     1      -5.234  -7.914  -6.268  1.00  0.00     0.100 C 
BRANCH  61  62
ATOM     62  C   UNL     1      -3.816  -7.463  -6.622  1.00  0.00     0.010 C 
BRANCH  62  63
ATOM     63  C   UNL     1      -3.120  -6.658  -5.519  1.00  0.00     0.000 C 
BRANCH  63  64
ATOM     64  C   UNL     1      -2.059  -7.440  -4.746  1.00  0.00    -0.003 C 
ATOM     65  C   UNL     1      -0.909  -7.859  -5.652  1.00  0.00     0.004 C 
ENDBRANCH  63  64
ENDBRANCH  62  63
ENDBRANCH  61  62
ENDBRANCH  58  61
ENDBRANCH  56  57
BRANCH  56  66
ATOM     66  C   UNL     1      -7.760  -9.940  -2.794  1.00  0.00     0.157 C 
BRANCH  66  67
ATOM     67  C   UNL     1      -8.613  -9.299  -3.850  1.00  0.00     0.305 C 
ATOM     68  O   UNL     1      -9.120  -8.188  -3.808  1.00  0.00    -0.252 OA
BRANCH  67  69
ATOM     69  O   UNL     1      -8.744 -10.075  -4.943  1.00  0.00    -0.481 OA
ATOM     70  H   UNL     1      -7.826 -10.251  -5.237  1.00  0.00     0.296 HD
ENDBRANCH  67  69
ENDBRANCH  66  67
ENDBRANCH  56  66
ENDBRANCH  53  56
ENDBRANCH  50  52
ENDBRANCH  47  50
ENDBRANCH  45  46
BRANCH  45  71
ATOM     71  C   UNL     1      -7.300  -4.623  -0.969  1.00  0.00     0.037 C 
BRANCH  71  72
ATOM     72  C   UNL     1      -7.791  -6.002  -1.415  1.00  0.00     0.026 C 
BRANCH  72  73
ATOM     73  C   UNL     1      -8.674  -6.653  -0.353  1.00  0.00     0.146 C 
BRANCH  73  74
ATOM     74  N   UNL     1      -8.085  -6.372   0.953  1.00  0.00    -0.254 NA
ATOM     75  C   UNL     1      -7.486  -7.330   1.558  1.00  0.00     0.185 C 
ATOM     76  N   UNL     1      -6.933  -7.102   2.760  1.00  0.00    -0.370 N 
ATOM     77  N   UNL     1      -7.312  -8.603   1.162  1.00  0.00    -0.370 N 
ATOM     78  H   UNL     1      -7.025  -6.169   3.137  1.00  0.00     0.159 HD
ATOM     79  H   UNL     1      -6.578  -7.831   3.354  1.00  0.00     0.159 HD
ATOM     80  H   UNL     1      -7.672  -8.918   0.274  1.00  0.00     0.159 HD
ATOM     81  H   UNL     1      -6.722  -9.239   1.672  1.00  0.00     0.159 HD
ENDBRANCH  73  74
ENDBRANCH  72  73
ENDBRANCH  71  72
ENDBRANCH  45  71
ENDBRANCH   3  45
TORSDOF 20
ENDMDL
MODEL 25
REMARK VINA RESULT:    -6.065     13.349     20.049
REMARK INTER + INTRA:         -23.122
REMARK INTER:                 -18.358
REMARK INTRA:                  -4.765
REMARK UNBOUND:                -5.711
REMARK SMILES CCCCCC(=O)N[C@H](CC(=O)O)C(=O)N[C@H]1C(=O)N[C@H](CCCN=C(N)N)C(=O)N[C@@H]2CC[C@H](O)N(C2=O)[C@@H](CC(C)C)C(=O)N(C)[C@@H](Cc2ccccc2)C(=O)N[C@H](C(C)C)C(=O)O[C@@H]1C
REMARK SMILES IDX 30 1 31 2 29 3 32 5 35 6 37 7 34 8 38 9 33 10 39 11 36 12
REMARK SMILES IDX 40 14 41 15 42 16 43 17 44 18 45 19 46 20 47 21 48 22 49 23
REMARK SMILES IDX 50 24 51 25 52 26 56 27 53 28 55 29 54 30 57 31 58 32 59 33
REMARK SMILES IDX 60 35 61 36 62 37 63 38 64 39 65 40 66 41 67 42 68 43 21 45
REMARK SMILES IDX 20 46 18 47 19 48 17 50 16 52 14 53 15 54 9 56 8 57 6 58
REMARK SMILES IDX 7 59 5 61 4 62 3 63 2 64 1 65 10 66 11 67 12 68 13 69 22 71
REMARK SMILES IDX 23 72 24 73 25 74 26 75 27 76 28 77
REMARK H PARENT 31 4 36 13 59 34 20 49 16 55 8 60 13 70 27 78 27 79 28 80
REMARK H PARENT 28 81
REMARK Flexibility Score:  259.900
ROOT
ATOM      1  O   UNL     1      -6.021  -4.377  -1.085  1.00  0.00    -0.273 OA
ATOM      2  N   UNL     1      -4.952  -3.633  -2.965  1.00  0.00    -0.343 N 
ATOM      3  C   UNL     1      -5.659  -4.572  -2.246  1.00  0.00     0.243 C 
ATOM      4  H   UNL     1      -4.683  -3.822  -3.923  1.00  0.00     0.164 HD
ENDROOT
BRANCH   2   5
ATOM      5  C   UNL     1      -4.496  -2.401  -2.330  1.00  0.00     0.171 C 
ATOM      6  C   UNL     1      -3.181  -0.031  -3.360  1.00  0.00     0.214 C 
ATOM      7  N   UNL     1      -2.383  -1.129  -2.868  1.00  0.00    -0.303 N 
ATOM      8  C   UNL     1      -4.529   0.091  -2.666  1.00  0.00     0.057 C 
ATOM      9  C   UNL     1      -2.945  -2.310  -2.410  1.00  0.00     0.247 C 
ATOM     10  C   UNL     1      -5.303  -1.200  -2.820  1.00  0.00     0.040 C 
ATOM     11  O   UNL     1      -2.252  -3.278  -2.072  1.00  0.00    -0.272 OA
BRANCH   6  12
ATOM     12  O   UNL     1      -3.356  -0.213  -4.746  1.00  0.00    -0.373 OA
ATOM     13  H   UNL     1      -4.160  -0.761  -4.865  1.00  0.00     0.213 HD
ENDBRANCH   6  12
BRANCH   7  14
ATOM     14  C   UNL     1      -0.916  -1.006  -3.007  1.00  0.00     0.177 C 
BRANCH  14  15
ATOM     15  C   UNL     1      -0.414  -0.724  -4.437  1.00  0.00     0.038 C 
BRANCH  15  16
ATOM     16  C   UNL     1      -0.187  -1.902  -5.410  1.00  0.00    -0.015 C 
ATOM     17  C   UNL     1      -0.927  -3.170  -4.975  1.00  0.00     0.007 C 
ATOM     18  C   UNL     1       1.310  -2.224  -5.495  1.00  0.00     0.007 C 
ENDBRANCH  15  16
ENDBRANCH  14  15
BRANCH  14  19
ATOM     19  C   UNL     1      -0.292  -0.419  -1.695  1.00  0.00     0.245 C 
ATOM     20  O   UNL     1      -1.087  -0.080  -0.801  1.00  0.00    -0.272 OA
BRANCH  19  21
ATOM     21  N   UNL     1       1.057  -0.160  -1.530  1.00  0.00    -0.332 N 
ATOM     22  C   UNL     1       2.080  -0.348  -2.543  1.00  0.00     0.147 C 
BRANCH  21  23
ATOM     23  C   UNL     1       1.512   0.343  -0.205  1.00  0.00     0.178 C 
BRANCH  23  24
ATOM     24  C   UNL     1       2.142  -0.727   0.710  1.00  0.00     0.070 C 
BRANCH  24  25
ATOM     25  C   UNL     1       1.581  -0.853   2.108  1.00  0.00    -0.045 A 
ATOM     26  C   UNL     1       2.099  -1.794   3.007  1.00  0.00     0.004 A 
ATOM     27  C   UNL     1       0.525  -0.029   2.523  1.00  0.00     0.004 A 
ATOM     28  C   UNL     1       1.564  -1.917   4.290  1.00  0.00     0.000 A 
ATOM     29  C   UNL     1      -0.009  -0.152   3.807  1.00  0.00     0.000 A 
ATOM     30  C   UNL     1       0.510  -1.098   4.689  1.00  0.00     0.000 A 
ENDBRANCH  24  25
ENDBRANCH  23  24
BRANCH  23  31
ATOM     31  C   UNL     1       2.308   1.667  -0.303  1.00  0.00     0.243 C 
ATOM     32  O   UNL     1       2.000   2.601  -1.039  1.00  0.00    -0.273 OA
ATOM     33  N   UNL     1       3.514   1.639   0.377  1.00  0.00    -0.341 N 
ATOM     34  H   UNL     1       3.718   0.830   0.970  1.00  0.00     0.164 HD
BRANCH  33  35
ATOM     35  C   UNL     1       4.485   2.735   0.327  1.00  0.00     0.194 C 
BRANCH  35  36
ATOM     36  C   UNL     1       5.917   2.296  -0.089  1.00  0.00     0.017 C 
ATOM     37  C   UNL     1       6.010   0.768  -0.247  1.00  0.00     0.010 C 
ATOM     38  C   UNL     1       6.995   2.720   0.916  1.00  0.00     0.010 C 
ENDBRANCH  35  36
BRANCH  35  39
ATOM     39  C   UNL     1       4.494   3.586   1.627  1.00  0.00     0.329 C 
ATOM     40  O   UNL     1       4.322   3.126   2.750  1.00  0.00    -0.250 OA
BRANCH  39  41
ATOM     41  O   UNL     1       4.803   4.897   1.389  1.00  0.00    -0.458 OA
BRANCH  41  42
ATOM     42  C   UNL     1       4.336   5.854   2.369  1.00  0.00     0.205 CG0
ATOM     43  C   UNL     1       3.927   7.116   1.613  1.00  0.00     0.056 C 
ATOM     44  G   UNL     1       5.470   6.115   3.380  1.00  0.00     0.000 G0
ENDBRANCH  41  42
ENDBRANCH  39  41
ENDBRANCH  35  39
ENDBRANCH  33  35
ENDBRANCH  23  31
ENDBRANCH  21  23
ENDBRANCH  19  21
ENDBRANCH  14  19
ENDBRANCH   7  14
ENDBRANCH   2   5
BRANCH   3  45
ATOM     45  C   UNL     1      -5.983  -5.869  -2.999  1.00  0.00     0.171 C 
BRANCH  45  46
ATOM     46  N   UNL     1      -6.880  -6.617  -2.128  1.00  0.00    -0.342 N 
ATOM     47  C   UNL     1      -7.987  -7.275  -2.602  1.00  0.00     0.247 C 
ATOM     48  O   UNL     1      -8.262  -7.343  -3.800  1.00  0.00    -0.273 OA
ATOM     49  H   UNL     1      -6.657  -6.634  -1.135  1.00  0.00     0.164 HD
BRANCH  47  50
ATOM     50  C   UNL     1      -8.881  -7.903  -1.523  1.00  0.00     0.212 CG0
ATOM     51  G   UNL     1      -8.445  -9.371  -1.351  1.00  0.00     0.000 G0
BRANCH  50  52
ATOM     52  N   UNL     1      -8.672  -7.094  -0.325  1.00  0.00    -0.339 N 
ATOM     53  C   UNL     1      -8.348  -7.627   0.899  1.00  0.00     0.243 C 
ATOM     54  O   UNL     1      -8.261  -8.837   1.093  1.00  0.00    -0.273 OA
ATOM     55  H   UNL     1      -8.839  -6.093  -0.395  1.00  0.00     0.164 HD
BRANCH  53  56
ATOM     56  C   UNL     1      -8.263  -6.586   2.034  1.00  0.00     0.182 C 
BRANCH  56  57
ATOM     57  N   UNL     1      -8.549  -5.238   1.534  1.00  0.00    -0.344 N 
ATOM     58  C   UNL     1      -9.628  -4.506   1.967  1.00  0.00     0.220 C 
ATOM     59  O   UNL     1     -10.464  -4.953   2.744  1.00  0.00    -0.275 OA
ATOM     60  H   UNL     1      -7.829  -4.793   0.970  1.00  0.00     0.164 HD
BRANCH  58  61
ATOM     61  C   UNL     1      -9.695  -3.117   1.360  1.00  0.00     0.100 C 
BRANCH  61  62
ATOM     62  C   UNL     1      -8.327  -2.534   1.001  1.00  0.00     0.010 C 
BRANCH  62  63
ATOM     63  C   UNL     1      -7.884  -1.373   1.901  1.00  0.00     0.000 C 
BRANCH  63  64
ATOM     64  C   UNL     1      -6.396  -1.382   2.248  1.00  0.00    -0.003 C 
ATOM     65  C   UNL     1      -5.541  -1.059   1.031  1.00  0.00     0.004 C 
ENDBRANCH  63  64
ENDBRANCH  62  63
ENDBRANCH  61  62
ENDBRANCH  58  61
ENDBRANCH  56  57
BRANCH  56  66
ATOM     66  C   UNL     1      -6.921  -6.659   2.761  1.00  0.00     0.157 C 
BRANCH  66  67
ATOM     67  C   UNL     1      -5.840  -5.972   1.977  1.00  0.00     0.305 C 
ATOM     68  O   UNL     1      -5.076  -6.488   1.176  1.00  0.00    -0.252 OA
BRANCH  67  69
ATOM     69  O   UNL     1      -5.807  -4.646   2.205  1.00  0.00    -0.481 OA
ATOM     70  H   UNL     1      -5.648  -4.245   1.324  1.00  0.00     0.296 HD
ENDBRANCH  67  69
ENDBRANCH  66  67
ENDBRANCH  56  66
ENDBRANCH  53  56
ENDBRANCH  50  52
ENDBRANCH  47  50
ENDBRANCH  45  46
BRANCH  45  71
ATOM     71  C   UNL     1      -4.697  -6.651  -3.293  1.00  0.00     0.037 C 
BRANCH  71  72
ATOM     72  C   UNL     1      -3.819  -6.803  -2.049  1.00  0.00     0.026 C 
BRANCH  72  73
ATOM     73  C   UNL     1      -3.909  -8.212  -1.467  1.00  0.00     0.146 C 
BRANCH  73  74
ATOM     74  N   UNL     1      -4.690  -9.028  -2.392  1.00  0.00    -0.254 NA
ATOM     75  C   UNL     1      -5.589  -9.797  -1.899  1.00  0.00     0.185 C 
ATOM     76  N   UNL     1      -6.325 -10.559  -2.724  1.00  0.00    -0.370 N 
ATOM     77  N   UNL     1      -5.936  -9.976  -0.612  1.00  0.00    -0.370 N 
ATOM     78  H   UNL     1      -6.123 -10.491  -3.712  1.00  0.00     0.159 HD
ATOM     79  H   UNL     1      -6.941 -11.286  -2.405  1.00  0.00     0.159 HD
ATOM     80  H   UNL     1      -5.469  -9.464   0.121  1.00  0.00     0.159 HD
ATOM     81  H   UNL     1      -6.739 -10.523  -0.353  1.00  0.00     0.159 HD
ENDBRANCH  73  74
ENDBRANCH  72  73
ENDBRANCH  71  72
ENDBRANCH  45  71
ENDBRANCH   3  45
TORSDOF 20
ENDMDL
MODEL 26
REMARK VINA RESULT:    -6.057      9.398     13.483
REMARK INTER + INTRA:         -23.100
REMARK INTER:                 -17.064
REMARK INTRA:                  -6.036
REMARK UNBOUND:                -5.711
REMARK SMILES CCCCCC(=O)N[C@H](CC(=O)O)C(=O)N[C@H]1C(=O)N[C@H](CCCN=C(N)N)C(=O)N[C@@H]2CC[C@H](O)N(C2=O)[C@@H](CC(C)C)C(=O)N(C)[C@@H](Cc2ccccc2)C(=O)N[C@H](C(C)C)C(=O)O[C@@H]1C
REMARK SMILES IDX 30 1 31 2 29 3 32 5 35 6 37 7 34 8 38 9 33 10 39 11 36 12
REMARK SMILES IDX 40 14 41 15 42 16 43 17 44 18 45 19 46 20 47 21 48 22 49 23
REMARK SMILES IDX 50 24 51 25 52 26 56 27 53 28 55 29 54 30 57 31 58 32 59 33
REMARK SMILES IDX 60 35 61 36 62 37 63 38 64 39 65 40 66 41 67 42 68 43 21 45
REMARK SMILES IDX 20 46 18 47 19 48 17 50 16 52 14 53 15 54 9 56 8 57 6 58
REMARK SMILES IDX 7 59 5 61 4 62 3 63 2 64 1 65 10 66 11 67 12 68 13 69 22 71
REMARK SMILES IDX 23 72 24 73 25 74 26 75 27 76 28 77
REMARK H PARENT 31 4 36 13 59 34 20 49 16 55 8 60 13 70 27 78 27 79 28 80
REMARK H PARENT 28 81
REMARK Flexibility Score:  259.900
ROOT
ATOM      1  O   UNL     1      -8.288   2.704   0.466  1.00  0.00    -0.273 OA
ATOM      2  N   UNL     1      -8.824   4.625  -0.654  1.00  0.00    -0.343 N 
ATOM      3  C   UNL     1      -8.426   3.307  -0.599  1.00  0.00     0.243 C 
ATOM      4  H   UNL     1      -8.941   5.084  -1.549  1.00  0.00     0.164 HD
ENDROOT
BRANCH   2   5
ATOM      5  C   UNL     1      -8.986   5.403   0.570  1.00  0.00     0.171 C 
ATOM      6  C   UNL     1     -10.395   7.867   1.159  1.00  0.00     0.214 C 
ATOM      7  N   UNL     1      -9.010   7.921   0.755  1.00  0.00    -0.303 N 
ATOM      8  C   UNL     1     -10.756   6.591   1.903  1.00  0.00     0.057 C 
ATOM      9  C   UNL     1      -8.292   6.787   0.410  1.00  0.00     0.247 C 
ATOM     10  C   UNL     1     -10.439   5.388   1.041  1.00  0.00     0.040 C 
ATOM     11  O   UNL     1      -7.132   6.849  -0.018  1.00  0.00    -0.272 OA
BRANCH   6  12
ATOM     12  O   UNL     1     -11.187   8.003   0.001  1.00  0.00    -0.373 OA
ATOM     13  H   UNL     1     -10.609   8.372  -0.700  1.00  0.00     0.213 HD
ENDBRANCH   6  12
BRANCH   7  14
ATOM     14  C   UNL     1      -8.414   9.262   0.579  1.00  0.00     0.177 C 
BRANCH  14  15
ATOM     15  C   UNL     1      -9.136  10.172  -0.434  1.00  0.00     0.038 C 
BRANCH  15  16
ATOM     16  C   UNL     1      -8.319  11.192  -1.258  1.00  0.00    -0.015 C 
ATOM     17  C   UNL     1      -6.836  10.821  -1.341  1.00  0.00     0.007 C 
ATOM     18  C   UNL     1      -8.432  12.583  -0.621  1.00  0.00     0.007 C 
ENDBRANCH  15  16
ENDBRANCH  14  15
BRANCH  14  19
ATOM     19  C   UNL     1      -7.747   9.741   1.914  1.00  0.00     0.245 C 
ATOM     20  O   UNL     1      -6.930   8.967   2.440  1.00  0.00    -0.272 OA
BRANCH  19  21
ATOM     21  N   UNL     1      -8.099  10.902   2.579  1.00  0.00    -0.332 N 
ATOM     22  C   UNL     1      -9.455  11.382   2.777  1.00  0.00     0.147 C 
BRANCH  21  23
ATOM     23  C   UNL     1      -7.004  11.746   3.132  1.00  0.00     0.178 C 
BRANCH  23  24
ATOM     24  C   UNL     1      -6.952  13.183   2.574  1.00  0.00     0.070 C 
BRANCH  24  25
ATOM     25  C   UNL     1      -5.878  13.488   1.556  1.00  0.00    -0.045 A 
ATOM     26  C   UNL     1      -5.797  14.750   0.954  1.00  0.00     0.004 A 
ATOM     27  C   UNL     1      -4.946  12.504   1.195  1.00  0.00     0.004 A 
ATOM     28  C   UNL     1      -4.812  15.018   0.001  1.00  0.00     0.000 A 
ATOM     29  C   UNL     1      -3.961  12.773   0.243  1.00  0.00     0.000 A 
ATOM     30  C   UNL     1      -3.897  14.030  -0.355  1.00  0.00     0.000 A 
ENDBRANCH  24  25
ENDBRANCH  23  24
BRANCH  23  31
ATOM     31  C   UNL     1      -6.879  11.640   4.670  1.00  0.00     0.243 C 
ATOM     32  O   UNL     1      -6.999  10.591   5.298  1.00  0.00    -0.273 OA
ATOM     33  N   UNL     1      -6.801  12.868   5.305  1.00  0.00    -0.341 N 
ATOM     34  H   UNL     1      -6.709  13.708   4.728  1.00  0.00     0.164 HD
BRANCH  33  35
ATOM     35  C   UNL     1      -6.795  13.014   6.763  1.00  0.00     0.194 C 
BRANCH  35  36
ATOM     36  C   UNL     1      -7.960  13.882   7.319  1.00  0.00     0.017 C 
ATOM     37  C   UNL     1      -8.720  13.147   8.437  1.00  0.00     0.010 C 
ATOM     38  C   UNL     1      -8.985  14.275   6.249  1.00  0.00     0.010 C 
ENDBRANCH  35  36
BRANCH  35  39
ATOM     39  C   UNL     1      -5.416  13.474   7.312  1.00  0.00     0.329 C 
ATOM     40  O   UNL     1      -4.682  14.274   6.742  1.00  0.00    -0.250 OA
BRANCH  39  41
ATOM     41  O   UNL     1      -5.148  12.954   8.548  1.00  0.00    -0.458 OA
BRANCH  41  42
ATOM     42  C   UNL     1      -4.697  13.891   9.555  1.00  0.00     0.205 CG0
ATOM     43  C   UNL     1      -5.804  13.999  10.602  1.00  0.00     0.056 C 
ATOM     44  G   UNL     1      -4.399  15.241   8.872  1.00  0.00     0.000 G0
ENDBRANCH  41  42
ENDBRANCH  39  41
ENDBRANCH  35  39
ENDBRANCH  33  35
ENDBRANCH  23  31
ENDBRANCH  21  23
ENDBRANCH  19  21
ENDBRANCH  14  19
ENDBRANCH   7  14
ENDBRANCH   2   5
BRANCH   3  45
ATOM     45  C   UNL     1      -8.187   2.636  -1.958  1.00  0.00     0.171 C 
BRANCH  45  46
ATOM     46  N   UNL     1      -8.539   1.234  -1.773  1.00  0.00    -0.342 N 
ATOM     47  C   UNL     1      -9.215   0.513  -2.725  1.00  0.00     0.247 C 
ATOM     48  O   UNL     1      -9.508   0.973  -3.829  1.00  0.00    -0.273 OA
ATOM     49  H   UNL     1      -8.266   0.798  -0.895  1.00  0.00     0.164 HD
BRANCH  47  50
ATOM     50  C   UNL     1      -9.609  -0.910  -2.304  1.00  0.00     0.212 CG0
ATOM     51  G   UNL     1     -10.813  -1.337  -3.168  1.00  0.00     0.000 G0
BRANCH  50  52
ATOM     52  N   UNL     1      -8.419  -1.726  -2.529  1.00  0.00    -0.339 N 
ATOM     53  C   UNL     1      -8.197  -2.928  -1.902  1.00  0.00     0.243 C 
ATOM     54  O   UNL     1      -8.963  -3.386  -1.058  1.00  0.00    -0.273 OA
ATOM     55  H   UNL     1      -7.693  -1.347  -3.134  1.00  0.00     0.164 HD
BRANCH  53  56
ATOM     56  C   UNL     1      -6.832  -3.566  -2.232  1.00  0.00     0.182 C 
BRANCH  56  57
ATOM     57  N   UNL     1      -5.757  -2.570  -2.169  1.00  0.00    -0.344 N 
ATOM     58  C   UNL     1      -4.783  -2.600  -1.200  1.00  0.00     0.220 C 
ATOM     59  O   UNL     1      -4.786  -3.412  -0.282  1.00  0.00    -0.275 OA
ATOM     60  H   UNL     1      -5.661  -1.945  -2.965  1.00  0.00     0.164 HD
BRANCH  58  61
ATOM     61  C   UNL     1      -3.741  -1.509  -1.363  1.00  0.00     0.100 C 
BRANCH  61  62
ATOM     62  C   UNL     1      -2.716  -1.795  -2.462  1.00  0.00     0.010 C 
BRANCH  62  63
ATOM     63  C   UNL     1      -2.610  -0.692  -3.522  1.00  0.00     0.000 C 
BRANCH  63  64
ATOM     64  C   UNL     1      -3.928   0.019  -3.822  1.00  0.00    -0.003 C 
ATOM     65  C   UNL     1      -3.725   1.517  -3.994  1.00  0.00     0.004 C 
ENDBRANCH  63  64
ENDBRANCH  62  63
ENDBRANCH  61  62
ENDBRANCH  58  61
ENDBRANCH  56  57
BRANCH  56  66
ATOM     66  C   UNL     1      -6.865  -4.295  -3.574  1.00  0.00     0.157 C 
BRANCH  66  67
ATOM     67  C   UNL     1      -6.182  -3.493  -4.645  1.00  0.00     0.305 C 
ATOM     68  O   UNL     1      -5.097  -3.728  -5.156  1.00  0.00    -0.252 OA
BRANCH  67  69
ATOM     69  O   UNL     1      -6.929  -2.454  -5.061  1.00  0.00    -0.481 OA
ATOM     70  H   UNL     1      -6.493  -1.663  -4.680  1.00  0.00     0.296 HD
ENDBRANCH  67  69
ENDBRANCH  66  67
ENDBRANCH  56  66
ENDBRANCH  53  56
ENDBRANCH  50  52
ENDBRANCH  47  50
ENDBRANCH  45  46
BRANCH  45  71
ATOM     71  C   UNL     1      -6.724   2.799  -2.385  1.00  0.00     0.037 C 
BRANCH  71  72
ATOM     72  C   UNL     1      -6.509   4.054  -3.235  1.00  0.00     0.026 C 
BRANCH  72  73
ATOM     73  C   UNL     1      -7.481   4.108  -4.411  1.00  0.00     0.146 C 
BRANCH  73  74
ATOM     74  N   UNL     1      -6.720   3.856  -5.631  1.00  0.00    -0.254 NA
ATOM     75  C   UNL     1      -6.628   2.645  -6.040  1.00  0.00     0.185 C 
ATOM     76  N   UNL     1      -5.935   2.382  -7.160  1.00  0.00    -0.370 N 
ATOM     77  N   UNL     1      -7.143   1.528  -5.497  1.00  0.00    -0.370 N 
ATOM     78  H   UNL     1      -5.507   3.167  -7.629  1.00  0.00     0.159 HD
ATOM     79  H   UNL     1      -5.699   1.452  -7.460  1.00  0.00     0.159 HD
ATOM     80  H   UNL     1      -7.692   1.574  -4.652  1.00  0.00     0.159 HD
ATOM     81  H   UNL     1      -7.101   0.641  -5.973  1.00  0.00     0.159 HD
ENDBRANCH  73  74
ENDBRANCH  72  73
ENDBRANCH  71  72
ENDBRANCH  45  71
ENDBRANCH   3  45
TORSDOF 20
ENDMDL
MODEL 27
REMARK VINA RESULT:    -6.039      2.554      5.564
REMARK INTER + INTRA:         -23.047
REMARK INTER:                 -18.292
REMARK INTRA:                  -4.755
REMARK UNBOUND:                -5.711
REMARK SMILES CCCCCC(=O)N[C@H](CC(=O)O)C(=O)N[C@H]1C(=O)N[C@H](CCCN=C(N)N)C(=O)N[C@@H]2CC[C@H](O)N(C2=O)[C@@H](CC(C)C)C(=O)N(C)[C@@H](Cc2ccccc2)C(=O)N[C@H](C(C)C)C(=O)O[C@@H]1C
REMARK SMILES IDX 30 1 31 2 29 3 32 5 35 6 37 7 34 8 38 9 33 10 39 11 36 12
REMARK SMILES IDX 40 14 41 15 42 16 43 17 44 18 45 19 46 20 47 21 48 22 49 23
REMARK SMILES IDX 50 24 51 25 52 26 56 27 53 28 55 29 54 30 57 31 58 32 59 33
REMARK SMILES IDX 60 35 61 36 62 37 63 38 64 39 65 40 66 41 67 42 68 43 21 45
REMARK SMILES IDX 20 46 18 47 19 48 17 50 16 52 14 53 15 54 9 56 8 57 6 58
REMARK SMILES IDX 7 59 5 61 4 62 3 63 2 64 1 65 10 66 11 67 12 68 13 69 22 71
REMARK SMILES IDX 23 72 24 73 25 74 26 75 27 76 28 77
REMARK H PARENT 31 4 36 13 59 34 20 49 16 55 8 60 13 70 27 78 27 79 28 80
REMARK H PARENT 28 81
REMARK Flexibility Score:  259.900
ROOT
ATOM      1  O   UNL     1      -4.006  14.664  -2.814  1.00  0.00    -0.273 OA
ATOM      2  N   UNL     1      -3.890  13.160  -1.095  1.00  0.00    -0.343 N 
ATOM      3  C   UNL     1      -3.473  13.679  -2.302  1.00  0.00     0.243 C 
ATOM      4  H   UNL     1      -3.418  12.358  -0.696  1.00  0.00     0.164 HD
ENDROOT
BRANCH   2   5
ATOM      5  C   UNL     1      -5.071  13.694  -0.425  1.00  0.00     0.171 C 
ATOM      6  C   UNL     1      -6.210  13.246   2.203  1.00  0.00     0.214 C 
ATOM      7  N   UNL     1      -6.637  12.424   1.094  1.00  0.00    -0.303 N 
ATOM      8  C   UNL     1      -5.792  14.648   1.787  1.00  0.00     0.057 C 
ATOM      9  C   UNL     1      -6.096  12.551  -0.175  1.00  0.00     0.247 C 
ATOM     10  C   UNL     1      -4.679  14.568   0.765  1.00  0.00     0.040 C 
ATOM     11  O   UNL     1      -6.404  11.786  -1.099  1.00  0.00    -0.272 OA
BRANCH   6  12
ATOM     12  O   UNL     1      -5.144  12.585   2.844  1.00  0.00    -0.373 OA
ATOM     13  H   UNL     1      -4.382  12.601   2.226  1.00  0.00     0.213 HD
ENDBRANCH   6  12
BRANCH   7  14
ATOM     14  C   UNL     1      -7.579  11.327   1.397  1.00  0.00     0.177 C 
BRANCH  14  15
ATOM     15  C   UNL     1      -6.950  10.083   2.055  1.00  0.00     0.038 C 
BRANCH  15  16
ATOM     16  C   UNL     1      -7.345   8.676   1.557  1.00  0.00    -0.015 C 
ATOM     17  C   UNL     1      -8.222   8.725   0.302  1.00  0.00     0.007 C 
ATOM     18  C   UNL     1      -8.120   7.935   2.655  1.00  0.00     0.007 C 
ENDBRANCH  15  16
ENDBRANCH  14  15
BRANCH  14  19
ATOM     19  C   UNL     1      -8.999  11.905   1.724  1.00  0.00     0.245 C 
ATOM     20  O   UNL     1      -9.323  12.955   1.144  1.00  0.00    -0.272 OA
BRANCH  19  21
ATOM     21  N   UNL     1      -9.843  11.380   2.687  1.00  0.00    -0.332 N 
ATOM     22  C   UNL     1     -10.919  10.436   2.440  1.00  0.00     0.147 C 
BRANCH  21  23
ATOM     23  C   UNL     1      -9.649  11.819   4.096  1.00  0.00     0.178 C 
BRANCH  23  24
ATOM     24  C   UNL     1     -10.269  13.190   4.436  1.00  0.00     0.070 C 
BRANCH  24  25
ATOM     25  C   UNL     1      -9.809  13.855   5.713  1.00  0.00    -0.045 A 
ATOM     26  C   UNL     1     -10.683  14.656   6.459  1.00  0.00     0.004 A 
ATOM     27  C   UNL     1      -8.493  13.682   6.166  1.00  0.00     0.004 A 
ATOM     28  C   UNL     1     -10.245  15.282   7.629  1.00  0.00     0.000 A 
ATOM     29  C   UNL     1      -8.058  14.307   7.336  1.00  0.00     0.000 A 
ATOM     30  C   UNL     1      -8.934  15.109   8.065  1.00  0.00     0.000 A 
ENDBRANCH  24  25
ENDBRANCH  23  24
BRANCH  23  31
ATOM     31  C   UNL     1      -9.942  10.699   5.123  1.00  0.00     0.243 C 
ATOM     32  O   UNL     1      -9.172   9.773   5.368  1.00  0.00    -0.273 OA
ATOM     33  N   UNL     1     -11.235  10.724   5.616  1.00  0.00    -0.341 N 
ATOM     34  H   UNL     1     -11.832  11.519   5.372  1.00  0.00     0.164 HD
BRANCH  33  35
ATOM     35  C   UNL     1     -11.770   9.693   6.509  1.00  0.00     0.194 C 
BRANCH  35  36
ATOM     36  C   UNL     1     -12.763   8.712   5.823  1.00  0.00     0.017 C 
ATOM     37  C   UNL     1     -12.018   7.588   5.083  1.00  0.00     0.010 C 
ATOM     38  C   UNL     1     -13.685   9.398   4.808  1.00  0.00     0.010 C 
ENDBRANCH  35  36
BRANCH  35  39
ATOM     39  C   UNL     1     -12.353  10.283   7.823  1.00  0.00     0.329 C 
ATOM     40  O   UNL     1     -12.568  11.476   8.003  1.00  0.00    -0.250 OA
BRANCH  39  41
ATOM     41  O   UNL     1     -12.681   9.312   8.729  1.00  0.00    -0.458 OA
BRANCH  41  42
ATOM     42  C   UNL     1     -11.975   9.349   9.992  1.00  0.00     0.205 CG0
ATOM     43  C   UNL     1     -12.299   8.052  10.730  1.00  0.00     0.056 C 
ATOM     44  G   UNL     1     -12.427  10.600  10.772  1.00  0.00     0.000 G0
ENDBRANCH  41  42
ENDBRANCH  39  41
ENDBRANCH  35  39
ENDBRANCH  33  35
ENDBRANCH  23  31
ENDBRANCH  21  23
ENDBRANCH  19  21
ENDBRANCH  14  19
ENDBRANCH   7  14
ENDBRANCH   2   5
BRANCH   3  45
ATOM     45  C   UNL     1      -2.285  12.958  -2.952  1.00  0.00     0.171 C 
BRANCH  45  46
ATOM     46  N   UNL     1      -1.787  13.864  -3.978  1.00  0.00    -0.342 N 
ATOM     47  C   UNL     1      -0.572  13.688  -4.590  1.00  0.00     0.247 C 
ATOM     48  O   UNL     1       0.151  12.715  -4.371  1.00  0.00    -0.273 OA
ATOM     49  H   UNL     1      -2.380  14.653  -4.230  1.00  0.00     0.164 HD
BRANCH  47  50
ATOM     50  C   UNL     1      -0.159  14.810  -5.553  1.00  0.00     0.212 CG0
ATOM     51  G   UNL     1       0.782  15.760  -4.787  1.00  0.00     0.000 G0
BRANCH  50  52
ATOM     52  N   UNL     1       0.487  14.139  -6.678  1.00  0.00    -0.339 N 
ATOM     53  C   UNL     1       0.962  14.804  -7.782  1.00  0.00     0.243 C 
ATOM     54  O   UNL     1       0.830  16.016  -7.933  1.00  0.00    -0.273 OA
ATOM     55  H   UNL     1       0.527  13.122  -6.663  1.00  0.00     0.164 HD
BRANCH  53  56
ATOM     56  C   UNL     1       1.526  13.878  -8.878  1.00  0.00     0.182 C 
BRANCH  56  57
ATOM     57  N   UNL     1       2.548  12.978  -8.333  1.00  0.00    -0.344 N 
ATOM     58  C   UNL     1       2.251  11.715  -7.881  1.00  0.00     0.220 C 
ATOM     59  O   UNL     1       1.105  11.280  -7.834  1.00  0.00    -0.275 OA
ATOM     60  H   UNL     1       3.518  13.259  -8.447  1.00  0.00     0.164 HD
BRANCH  58  61
ATOM     61  C   UNL     1       3.470  10.941  -7.415  1.00  0.00     0.100 C 
BRANCH  61  62
ATOM     62  C   UNL     1       3.453  10.603  -5.924  1.00  0.00     0.010 C 
BRANCH  62  63
ATOM     63  C   UNL     1       3.323  11.824  -5.006  1.00  0.00     0.000 C 
BRANCH  63  64
ATOM     64  C   UNL     1       3.972  11.648  -3.633  1.00  0.00    -0.003 C 
ATOM     65  C   UNL     1       5.440  11.268  -3.758  1.00  0.00     0.004 C 
ENDBRANCH  63  64
ENDBRANCH  62  63
ENDBRANCH  61  62
ENDBRANCH  58  61
ENDBRANCH  56  57
BRANCH  56  66
ATOM     66  C   UNL     1       2.040  14.675 -10.076  1.00  0.00     0.157 C 
BRANCH  66  67
ATOM     67  C   UNL     1       3.502  14.986  -9.935  1.00  0.00     0.305 C 
ATOM     68  O   UNL     1       4.401  14.638 -10.685  1.00  0.00    -0.252 OA
BRANCH  67  69
ATOM     69  O   UNL     1       3.758  15.773  -8.872  1.00  0.00    -0.481 OA
ATOM     70  H   UNL     1       4.340  16.481  -9.219  1.00  0.00     0.296 HD
ENDBRANCH  67  69
ENDBRANCH  66  67
ENDBRANCH  56  66
ENDBRANCH  53  56
ENDBRANCH  50  52
ENDBRANCH  47  50
ENDBRANCH  45  46
BRANCH  45  71
ATOM     71  C   UNL     1      -2.735  11.620  -3.550  1.00  0.00     0.037 C 
BRANCH  71  72
ATOM     72  C   UNL     1      -1.773  10.481  -3.204  1.00  0.00     0.026 C 
BRANCH  72  73
ATOM     73  C   UNL     1      -2.440   9.433  -2.317  1.00  0.00     0.146 C 
BRANCH  73  74
ATOM     74  N   UNL     1      -3.762   9.155  -2.870  1.00  0.00    -0.254 NA
ATOM     75  C   UNL     1      -4.750   9.083  -2.056  1.00  0.00     0.185 C 
ATOM     76  N   UNL     1      -5.978   8.830  -2.536  1.00  0.00    -0.370 N 
ATOM     77  N   UNL     1      -4.755   9.230  -0.720  1.00  0.00    -0.370 N 
ATOM     78  H   UNL     1      -6.062   8.699  -3.533  1.00  0.00     0.159 HD
ATOM     79  H   UNL     1      -6.767   8.617  -1.951  1.00  0.00     0.159 HD
ATOM     80  H   UNL     1      -3.901   9.428  -0.221  1.00  0.00     0.159 HD
ATOM     81  H   UNL     1      -5.614   9.266  -0.196  1.00  0.00     0.159 HD
ENDBRANCH  73  74
ENDBRANCH  72  73
ENDBRANCH  71  72
ENDBRANCH  45  71
ENDBRANCH   3  45
TORSDOF 20
ENDMDL
MODEL 28
REMARK VINA RESULT:    -6.025      2.727     15.340
REMARK INTER + INTRA:         -23.007
REMARK INTER:                 -18.169
REMARK INTRA:                  -4.838
REMARK UNBOUND:                -5.711
REMARK SMILES CCCCCC(=O)N[C@H](CC(=O)O)C(=O)N[C@H]1C(=O)N[C@H](CCCN=C(N)N)C(=O)N[C@@H]2CC[C@H](O)N(C2=O)[C@@H](CC(C)C)C(=O)N(C)[C@@H](Cc2ccccc2)C(=O)N[C@H](C(C)C)C(=O)O[C@@H]1C
REMARK SMILES IDX 30 1 31 2 29 3 32 5 35 6 37 7 34 8 38 9 33 10 39 11 36 12
REMARK SMILES IDX 40 14 41 15 42 16 43 17 44 18 45 19 46 20 47 21 48 22 49 23
REMARK SMILES IDX 50 24 51 25 52 26 56 27 53 28 55 29 54 30 57 31 58 32 59 33
REMARK SMILES IDX 60 35 61 36 62 37 63 38 64 39 65 40 66 41 67 42 68 43 21 45
REMARK SMILES IDX 20 46 18 47 19 48 17 50 16 52 14 53 15 54 9 56 8 57 6 58
REMARK SMILES IDX 7 59 5 61 4 62 3 63 2 64 1 65 10 66 11 67 12 68 13 69 22 71
REMARK SMILES IDX 23 72 24 73 25 74 26 75 27 76 28 77
REMARK H PARENT 31 4 36 13 59 34 20 49 16 55 8 60 13 70 27 78 27 79 28 80
REMARK H PARENT 28 81
REMARK Flexibility Score:  259.900
ROOT
ATOM      1  O   UNL     1      -6.004   9.425  -2.101  1.00  0.00    -0.273 OA
ATOM      2  N   UNL     1      -3.764   9.696  -1.724  1.00  0.00    -0.343 N 
ATOM      3  C   UNL     1      -5.076   9.609  -1.312  1.00  0.00     0.243 C 
ATOM      4  H   UNL     1      -3.026   9.833  -1.045  1.00  0.00     0.164 HD
ENDROOT
BRANCH   2   5
ATOM      5  C   UNL     1      -3.430   9.691  -3.144  1.00  0.00     0.171 C 
ATOM      6  C   UNL     1      -1.024   8.975  -4.594  1.00  0.00     0.214 C 
ATOM      7  N   UNL     1      -1.216  10.341  -4.168  1.00  0.00    -0.303 N 
ATOM      8  C   UNL     1      -2.327   8.245  -4.881  1.00  0.00     0.057 C 
ATOM      9  C   UNL     1      -2.318  10.740  -3.428  1.00  0.00     0.247 C 
ATOM     10  C   UNL     1      -3.208   8.267  -3.651  1.00  0.00     0.040 C 
ATOM     11  O   UNL     1      -2.432  11.894  -2.992  1.00  0.00    -0.272 OA
BRANCH   6  12
ATOM     12  O   UNL     1      -0.297   8.308  -3.588  1.00  0.00    -0.373 OA
ATOM     13  H   UNL     1      -0.639   8.629  -2.726  1.00  0.00     0.213 HD
ENDBRANCH   6  12
BRANCH   7  14
ATOM     14  C   UNL     1      -0.109  11.286  -4.426  1.00  0.00     0.177 C 
BRANCH  14  15
ATOM     15  C   UNL     1       1.286  10.797  -3.990  1.00  0.00     0.038 C 
BRANCH  15  16
ATOM     16  C   UNL     1       2.504  11.057  -4.904  1.00  0.00    -0.015 C 
ATOM     17  C   UNL     1       3.000   9.781  -5.592  1.00  0.00     0.007 C 
ATOM     18  C   UNL     1       3.658  11.637  -4.078  1.00  0.00     0.007 C 
ENDBRANCH  15  16
ENDBRANCH  14  15
BRANCH  14  19
ATOM     19  C   UNL     1      -0.411  12.142  -5.703  1.00  0.00     0.245 C 
ATOM     20  O   UNL     1      -0.426  13.376  -5.559  1.00  0.00    -0.272 OA
BRANCH  19  21
ATOM     21  N   UNL     1      -0.765  11.603  -6.927  1.00  0.00    -0.332 N 
ATOM     22  C   UNL     1      -2.119  11.294  -7.352  1.00  0.00     0.147 C 
BRANCH  21  23
ATOM     23  C   UNL     1       0.324  11.298  -7.895  1.00  0.00     0.178 C 
BRANCH  23  24
ATOM     24  C   UNL     1      -0.130  10.549  -9.164  1.00  0.00     0.070 C 
BRANCH  24  25
ATOM     25  C   UNL     1       0.095   9.055  -9.200  1.00  0.00    -0.045 A 
ATOM     26  C   UNL     1      -0.554   8.210  -8.291  1.00  0.00     0.004 A 
ATOM     27  C   UNL     1       0.966   8.493 -10.146  1.00  0.00     0.004 A 
ATOM     28  C   UNL     1      -0.328   6.832  -8.319  1.00  0.00     0.000 A 
ATOM     29  C   UNL     1       1.190   7.116 -10.173  1.00  0.00     0.000 A 
ATOM     30  C   UNL     1       0.545   6.287  -9.258  1.00  0.00     0.000 A 
ENDBRANCH  24  25
ENDBRANCH  23  24
BRANCH  23  31
ATOM     31  C   UNL     1       1.260  12.504  -8.150  1.00  0.00     0.243 C 
ATOM     32  O   UNL     1       2.446  12.532  -7.832  1.00  0.00    -0.273 OA
ATOM     33  N   UNL     1       0.597  13.632  -8.604  1.00  0.00    -0.341 N 
ATOM     34  H   UNL     1      -0.393  13.548  -8.847  1.00  0.00     0.164 HD
BRANCH  33  35
ATOM     35  C   UNL     1       1.261  14.923  -8.801  1.00  0.00     0.194 C 
BRANCH  35  36
ATOM     36  C   UNL     1       0.328  16.152  -8.606  1.00  0.00     0.017 C 
ATOM     37  C   UNL     1       0.941  17.422  -9.223  1.00  0.00     0.010 C 
ATOM     38  C   UNL     1       0.028  16.456  -7.134  1.00  0.00     0.010 C 
ENDBRANCH  35  36
BRANCH  35  39
ATOM     39  C   UNL     1       2.044  14.996 -10.141  1.00  0.00     0.329 C 
ATOM     40  O   UNL     1       1.513  15.069 -11.243  1.00  0.00    -0.250 OA
BRANCH  39  41
ATOM     41  O   UNL     1       3.397  15.056  -9.950  1.00  0.00    -0.458 OA
BRANCH  41  42
ATOM     42  C   UNL     1       4.221  14.618 -11.057  1.00  0.00     0.205 CG0
ATOM     43  C   UNL     1       4.877  13.303 -10.643  1.00  0.00     0.056 C 
ATOM     44  G   UNL     1       5.253  15.720 -11.368  1.00  0.00     0.000 G0
ENDBRANCH  41  42
ENDBRANCH  39  41
ENDBRANCH  35  39
ENDBRANCH  33  35
ENDBRANCH  23  31
ENDBRANCH  21  23
ENDBRANCH  19  21
ENDBRANCH  14  19
ENDBRANCH   7  14
ENDBRANCH   2   5
BRANCH   3  45
ATOM     45  C   UNL     1      -5.300   9.736   0.201  1.00  0.00     0.171 C 
BRANCH  45  46
ATOM     46  N   UNL     1      -6.676   9.319   0.433  1.00  0.00    -0.342 N 
ATOM     47  C   UNL     1      -6.996   8.228   1.202  1.00  0.00     0.247 C 
ATOM     48  O   UNL     1      -6.152   7.568   1.809  1.00  0.00    -0.273 OA
ATOM     49  H   UNL     1      -7.410   9.872  -0.007  1.00  0.00     0.164 HD
BRANCH  47  50
ATOM     50  C   UNL     1      -8.488   7.868   1.230  1.00  0.00     0.212 CG0
ATOM     51  G   UNL     1      -8.647   6.606   2.101  1.00  0.00     0.000 G0
BRANCH  50  52
ATOM     52  N   UNL     1      -9.161   9.040   1.784  1.00  0.00    -0.339 N 
ATOM     53  C   UNL     1      -9.666   9.089   3.060  1.00  0.00     0.243 C 
ATOM     54  O   UNL     1      -9.636   8.126   3.821  1.00  0.00    -0.273 OA
ATOM     55  H   UNL     1      -9.316   9.833   1.164  1.00  0.00     0.164 HD
BRANCH  53  56
ATOM     56  C   UNL     1     -10.409  10.399   3.391  1.00  0.00     0.182 C 
BRANCH  56  57
ATOM     57  N   UNL     1      -9.468  11.458   3.767  1.00  0.00    -0.344 N 
ATOM     58  C   UNL     1      -9.349  12.625   3.051  1.00  0.00     0.220 C 
ATOM     59  O   UNL     1      -9.965  12.831   2.011  1.00  0.00    -0.275 OA
ATOM     60  H   UNL     1      -9.015  11.372   4.673  1.00  0.00     0.164 HD
BRANCH  58  61
ATOM     61  C   UNL     1      -8.357  13.602   3.655  1.00  0.00     0.100 C 
BRANCH  61  62
ATOM     62  C   UNL     1      -6.946  13.033   3.806  1.00  0.00     0.010 C 
BRANCH  62  63
ATOM     63  C   UNL     1      -6.364  13.166   5.219  1.00  0.00     0.000 C 
BRANCH  63  64
ATOM     64  C   UNL     1      -5.040  13.926   5.283  1.00  0.00    -0.003 C 
ATOM     65  C   UNL     1      -4.539  14.287   3.891  1.00  0.00     0.004 C 
ENDBRANCH  63  64
ENDBRANCH  62  63
ENDBRANCH  61  62
ENDBRANCH  58  61
ENDBRANCH  56  57
BRANCH  56  66
ATOM     66  C   UNL     1     -11.485  10.179   4.454  1.00  0.00     0.157 C 
BRANCH  66  67
ATOM     67  C   UNL     1     -12.531  11.255   4.400  1.00  0.00     0.305 C 
ATOM     68  O   UNL     1     -12.392  12.429   4.708  1.00  0.00    -0.252 OA
BRANCH  67  69
ATOM     69  O   UNL     1     -13.700  10.807   3.904  1.00  0.00    -0.481 OA
ATOM     70  H   UNL     1     -13.450  10.099   3.274  1.00  0.00     0.296 HD
ENDBRANCH  67  69
ENDBRANCH  66  67
ENDBRANCH  56  66
ENDBRANCH  53  56
ENDBRANCH  50  52
ENDBRANCH  47  50
ENDBRANCH  45  46
BRANCH  45  71
ATOM     71  C   UNL     1      -5.062  11.180   0.656  1.00  0.00     0.037 C 
BRANCH  71  72
ATOM     72  C   UNL     1      -5.525  12.197  -0.390  1.00  0.00     0.026 C 
BRANCH  72  73
ATOM     73  C   UNL     1      -5.532  13.616   0.174  1.00  0.00     0.146 C 
BRANCH  73  74
ATOM     74  N   UNL     1      -4.159  14.111   0.157  1.00  0.00    -0.254 NA
ATOM     75  C   UNL     1      -3.697  14.557  -0.953  1.00  0.00     0.185 C 
ATOM     76  N   UNL     1      -2.437  15.020  -1.000  1.00  0.00    -0.370 N 
ATOM     77  N   UNL     1      -4.306  14.643  -2.148  1.00  0.00    -0.370 N 
ATOM     78  H   UNL     1      -1.904  14.985  -0.143  1.00  0.00     0.159 HD
ATOM     79  H   UNL     1      -1.963  15.248  -1.856  1.00  0.00     0.159 HD
ATOM     80  H   UNL     1      -5.259  14.335  -2.262  1.00  0.00     0.159 HD
ATOM     81  H   UNL     1      -3.879  15.120  -2.925  1.00  0.00     0.159 HD
ENDBRANCH  73  74
ENDBRANCH  72  73
ENDBRANCH  71  72
ENDBRANCH  45  71
ENDBRANCH   3  45
TORSDOF 20
ENDMDL
MODEL 29
REMARK VINA RESULT:    -6.024      9.498     12.400
REMARK INTER + INTRA:         -23.004
REMARK INTER:                 -16.546
REMARK INTRA:                  -6.457
REMARK UNBOUND:                -5.711
REMARK SMILES CCCCCC(=O)N[C@H](CC(=O)O)C(=O)N[C@H]1C(=O)N[C@H](CCCN=C(N)N)C(=O)N[C@@H]2CC[C@H](O)N(C2=O)[C@@H](CC(C)C)C(=O)N(C)[C@@H](Cc2ccccc2)C(=O)N[C@H](C(C)C)C(=O)O[C@@H]1C
REMARK SMILES IDX 30 1 31 2 29 3 32 5 35 6 37 7 34 8 38 9 33 10 39 11 36 12
REMARK SMILES IDX 40 14 41 15 42 16 43 17 44 18 45 19 46 20 47 21 48 22 49 23
REMARK SMILES IDX 50 24 51 25 52 26 56 27 53 28 55 29 54 30 57 31 58 32 59 33
REMARK SMILES IDX 60 35 61 36 62 37 63 38 64 39 65 40 66 41 67 42 68 43 21 45
REMARK SMILES IDX 20 46 18 47 19 48 17 50 16 52 14 53 15 54 9 56 8 57 6 58
REMARK SMILES IDX 7 59 5 61 4 62 3 63 2 64 1 65 10 66 11 67 12 68 13 69 22 71
REMARK SMILES IDX 23 72 24 73 25 74 26 75 27 76 28 77
REMARK H PARENT 31 4 36 13 59 34 20 49 16 55 8 60 13 70 27 78 27 79 28 80
REMARK H PARENT 28 81
REMARK Flexibility Score:  259.900
ROOT
ATOM      1  O   UNL     1      -9.059   3.128  -0.999  1.00  0.00    -0.273 OA
ATOM      2  N   UNL     1      -9.542   5.282  -1.598  1.00  0.00    -0.343 N 
ATOM      3  C   UNL     1      -9.118   3.998  -1.869  1.00  0.00     0.243 C 
ATOM      4  H   UNL     1      -9.592   5.967  -2.342  1.00  0.00     0.164 HD
ENDROOT
BRANCH   2   5
ATOM      5  C   UNL     1      -9.828   5.696  -0.229  1.00  0.00     0.171 C 
ATOM      6  C   UNL     1     -10.674   8.218   0.923  1.00  0.00     0.214 C 
ATOM      7  N   UNL     1      -9.264   7.925   0.812  1.00  0.00    -0.303 N 
ATOM      8  C   UNL     1     -11.535   6.978   1.101  1.00  0.00     0.057 C 
ATOM      9  C   UNL     1      -8.791   6.763   0.226  1.00  0.00     0.247 C 
ATOM     10  C   UNL     1     -11.310   6.028  -0.055  1.00  0.00     0.040 C 
ATOM     11  O   UNL     1      -7.582   6.558   0.057  1.00  0.00    -0.272 OA
BRANCH   6  12
ATOM     12  O   UNL     1     -11.059   8.923  -0.235  1.00  0.00    -0.373 OA
ATOM     13  H   UNL     1     -10.631   8.478  -0.997  1.00  0.00     0.213 HD
ENDBRANCH   6  12
BRANCH   7  14
ATOM     14  C   UNL     1      -8.324   8.991   1.221  1.00  0.00     0.177 C 
BRANCH  14  15
ATOM     15  C   UNL     1      -7.856   9.923   0.086  1.00  0.00     0.038 C 
BRANCH  15  16
ATOM     16  C   UNL     1      -6.369   9.928  -0.330  1.00  0.00    -0.015 C 
ATOM     17  C   UNL     1      -5.433  10.206   0.849  1.00  0.00     0.007 C 
ATOM     18  C   UNL     1      -6.132  11.005  -1.396  1.00  0.00     0.007 C 
ENDBRANCH  15  16
ENDBRANCH  14  15
BRANCH  14  19
ATOM     19  C   UNL     1      -8.610   9.432   2.697  1.00  0.00     0.245 C 
ATOM     20  O   UNL     1      -8.466   8.567   3.578  1.00  0.00    -0.272 OA
BRANCH  19  21
ATOM     21  N   UNL     1      -9.113  10.673   3.048  1.00  0.00    -0.332 N 
ATOM     22  C   UNL     1     -10.479  11.119   2.836  1.00  0.00     0.147 C 
BRANCH  21  23
ATOM     23  C   UNL     1      -8.184  11.645   3.686  1.00  0.00     0.178 C 
BRANCH  23  24
ATOM     24  C   UNL     1      -8.172  13.046   3.040  1.00  0.00     0.070 C 
BRANCH  24  25
ATOM     25  C   UNL     1      -6.957  13.415   2.221  1.00  0.00    -0.045 A 
ATOM     26  C   UNL     1      -7.094  13.897   0.913  1.00  0.00     0.004 A 
ATOM     27  C   UNL     1      -5.670  13.275   2.761  1.00  0.00     0.004 A 
ATOM     28  C   UNL     1      -5.965  14.220   0.156  1.00  0.00     0.000 A 
ATOM     29  C   UNL     1      -4.543  13.599   2.003  1.00  0.00     0.000 A 
ATOM     30  C   UNL     1      -4.692  14.069   0.700  1.00  0.00     0.000 A 
ENDBRANCH  24  25
ENDBRANCH  23  24
BRANCH  23  31
ATOM     31  C   UNL     1      -8.273  11.641   5.231  1.00  0.00     0.243 C 
ATOM     32  O   UNL     1      -7.991  10.673   5.932  1.00  0.00    -0.273 OA
ATOM     33  N   UNL     1      -8.880  12.770   5.753  1.00  0.00    -0.341 N 
ATOM     34  H   UNL     1      -9.097  13.542   5.118  1.00  0.00     0.164 HD
BRANCH  33  35
ATOM     35  C   UNL     1      -9.178  12.930   7.179  1.00  0.00     0.194 C 
BRANCH  35  36
ATOM     36  C   UNL     1     -10.695  13.036   7.503  1.00  0.00     0.017 C 
ATOM     37  C   UNL     1     -11.357  11.648   7.541  1.00  0.00     0.010 C 
ATOM     38  C   UNL     1     -11.471  13.887   6.490  1.00  0.00     0.010 C 
ENDBRANCH  35  36
BRANCH  35  39
ATOM     39  C   UNL     1      -8.363  14.080   7.835  1.00  0.00     0.329 C 
ATOM     40  O   UNL     1      -8.793  15.214   8.007  1.00  0.00    -0.250 OA
BRANCH  39  41
ATOM     41  O   UNL     1      -7.139  13.662   8.279  1.00  0.00    -0.458 OA
BRANCH  41  42
ATOM     42  C   UNL     1      -6.372  14.623   9.043  1.00  0.00     0.205 CG0
ATOM     43  C   UNL     1      -5.831  13.897  10.273  1.00  0.00     0.056 C 
ATOM     44  G   UNL     1      -7.291  15.804   9.413  1.00  0.00     0.000 G0
ENDBRANCH  41  42
ENDBRANCH  39  41
ENDBRANCH  35  39
ENDBRANCH  33  35
ENDBRANCH  23  31
ENDBRANCH  21  23
ENDBRANCH  19  21
ENDBRANCH  14  19
ENDBRANCH   7  14
ENDBRANCH   2   5
BRANCH   3  45
ATOM     45  C   UNL     1      -8.746   3.723  -3.332  1.00  0.00     0.171 C 
BRANCH  45  46
ATOM     46  N   UNL     1      -8.015   2.463  -3.322  1.00  0.00    -0.342 N 
ATOM     47  C   UNL     1      -8.262   1.462  -4.228  1.00  0.00     0.247 C 
ATOM     48  O   UNL     1      -9.062   1.583  -5.156  1.00  0.00    -0.273 OA
ATOM     49  H   UNL     1      -7.303   2.343  -2.604  1.00  0.00     0.164 HD
BRANCH  47  50
ATOM     50  C   UNL     1      -7.484   0.161  -3.987  1.00  0.00     0.212 CG0
ATOM     51  G   UNL     1      -7.251  -0.505  -5.358  1.00  0.00     0.000 G0
BRANCH  50  52
ATOM     52  N   UNL     1      -6.247   0.564  -3.323  1.00  0.00    -0.339 N 
ATOM     53  C   UNL     1      -5.663  -0.158  -2.311  1.00  0.00     0.243 C 
ATOM     54  O   UNL     1      -6.169  -1.177  -1.847  1.00  0.00    -0.273 OA
ATOM     55  H   UNL     1      -5.838   1.458  -3.587  1.00  0.00     0.164 HD
BRANCH  53  56
ATOM     56  C   UNL     1      -4.411   0.509  -1.706  1.00  0.00     0.182 C 
BRANCH  56  57
ATOM     57  N   UNL     1      -3.198  -0.242  -2.047  1.00  0.00    -0.344 N 
ATOM     58  C   UNL     1      -2.570  -0.113  -3.262  1.00  0.00     0.220 C 
ATOM     59  O   UNL     1      -3.017   0.580  -4.170  1.00  0.00    -0.275 OA
ATOM     60  H   UNL     1      -2.741  -0.746  -1.292  1.00  0.00     0.164 HD
BRANCH  58  61
ATOM     61  C   UNL     1      -1.302  -0.939  -3.374  1.00  0.00     0.100 C 
BRANCH  61  62
ATOM     62  C   UNL     1      -1.110  -1.591  -4.744  1.00  0.00     0.010 C 
BRANCH  62  63
ATOM     63  C   UNL     1      -1.312  -3.111  -4.748  1.00  0.00     0.000 C 
BRANCH  63  64
ATOM     64  C   UNL     1      -2.553  -3.581  -3.991  1.00  0.00    -0.003 C 
ATOM     65  C   UNL     1      -3.828  -3.246  -4.752  1.00  0.00     0.004 C 
ENDBRANCH  63  64
ENDBRANCH  62  63
ENDBRANCH  61  62
ENDBRANCH  58  61
ENDBRANCH  56  57
BRANCH  56  66
ATOM     66  C   UNL     1      -4.557   0.713  -0.199  1.00  0.00     0.157 C 
BRANCH  66  67
ATOM     67  C   UNL     1      -3.688  -0.242   0.566  1.00  0.00     0.305 C 
ATOM     68  O   UNL     1      -2.635   0.015   1.129  1.00  0.00    -0.252 OA
BRANCH  67  69
ATOM     69  O   UNL     1      -4.219  -1.478   0.630  1.00  0.00    -0.481 OA
ATOM     70  H   UNL     1      -3.796  -1.892   1.412  1.00  0.00     0.296 HD
ENDBRANCH  67  69
ENDBRANCH  66  67
ENDBRANCH  56  66
ENDBRANCH  53  56
ENDBRANCH  50  52
ENDBRANCH  47  50
ENDBRANCH  45  46
BRANCH  45  71
ATOM     71  C   UNL     1      -7.892   4.868  -3.889  1.00  0.00     0.037 C 
BRANCH  71  72
ATOM     72  C   UNL     1      -8.260   5.209  -5.335  1.00  0.00     0.026 C 
BRANCH  72  73
ATOM     73  C   UNL     1      -7.106   4.916  -6.291  1.00  0.00     0.146 C 
BRANCH  73  74
ATOM     74  N   UNL     1      -6.430   3.712  -5.820  1.00  0.00    -0.254 NA
ATOM     75  C   UNL     1      -5.330   3.380  -6.390  1.00  0.00     0.185 C 
ATOM     76  N   UNL     1      -4.684   2.278  -5.977  1.00  0.00    -0.370 N 
ATOM     77  N   UNL     1      -4.680   3.994  -7.393  1.00  0.00    -0.370 N 
ATOM     78  H   UNL     1      -5.110   1.751  -5.228  1.00  0.00     0.159 HD
ATOM     79  H   UNL     1      -3.903   1.878  -6.466  1.00  0.00     0.159 HD
ATOM     80  H   UNL     1      -5.048   4.840  -7.802  1.00  0.00     0.159 HD
ATOM     81  H   UNL     1      -3.761   3.704  -7.683  1.00  0.00     0.159 HD
ENDBRANCH  73  74
ENDBRANCH  72  73
ENDBRANCH  71  72
ENDBRANCH  45  71
ENDBRANCH   3  45
TORSDOF 20
ENDMDL
MODEL 30
REMARK VINA RESULT:    -5.954     12.839     18.304
REMARK INTER + INTRA:         -22.802
REMARK INTER:                 -17.946
REMARK INTRA:                  -4.855
REMARK UNBOUND:                -5.711
REMARK SMILES CCCCCC(=O)N[C@H](CC(=O)O)C(=O)N[C@H]1C(=O)N[C@H](CCCN=C(N)N)C(=O)N[C@@H]2CC[C@H](O)N(C2=O)[C@@H](CC(C)C)C(=O)N(C)[C@@H](Cc2ccccc2)C(=O)N[C@H](C(C)C)C(=O)O[C@@H]1C
REMARK SMILES IDX 30 1 31 2 29 3 32 5 35 6 37 7 34 8 38 9 33 10 39 11 36 12
REMARK SMILES IDX 40 14 41 15 42 16 43 17 44 18 45 19 46 20 47 21 48 22 49 23
REMARK SMILES IDX 50 24 51 25 52 26 56 27 53 28 55 29 54 30 57 31 58 32 59 33
REMARK SMILES IDX 60 35 61 36 62 37 63 38 64 39 65 40 66 41 67 42 68 43 21 45
REMARK SMILES IDX 20 46 18 47 19 48 17 50 16 52 14 53 15 54 9 56 8 57 6 58
REMARK SMILES IDX 7 59 5 61 4 62 3 63 2 64 1 65 10 66 11 67 12 68 13 69 22 71
REMARK SMILES IDX 23 72 24 73 25 74 26 75 27 76 28 77
REMARK H PARENT 31 4 36 13 59 34 20 49 16 55 8 60 13 70 27 78 27 79 28 80
REMARK H PARENT 28 81
REMARK Flexibility Score:  259.900
ROOT
ATOM      1  O   UNL     1      -8.046  -0.629  -5.120  1.00  0.00    -0.273 OA
ATOM      2  N   UNL     1      -6.471  -0.303  -3.494  1.00  0.00    -0.343 N 
ATOM      3  C   UNL     1      -7.405   0.142  -4.405  1.00  0.00     0.243 C 
ATOM      4  H   UNL     1      -5.973   0.359  -2.912  1.00  0.00     0.164 HD
ENDROOT
BRANCH   2   5
ATOM      5  C   UNL     1      -6.116  -1.716  -3.425  1.00  0.00     0.171 C 
ATOM      6  C   UNL     1      -4.570  -3.262  -1.521  1.00  0.00     0.214 C 
ATOM      7  N   UNL     1      -3.908  -2.672  -2.662  1.00  0.00    -0.303 N 
ATOM      8  C   UNL     1      -6.022  -3.623  -1.789  1.00  0.00     0.057 C 
ATOM      9  C   UNL     1      -4.577  -1.881  -3.581  1.00  0.00     0.247 C 
ATOM     10  C   UNL     1      -6.784  -2.392  -2.229  1.00  0.00     0.040 C 
ATOM     11  O   UNL     1      -3.986  -1.309  -4.507  1.00  0.00    -0.272 OA
BRANCH   6  12
ATOM     12  O   UNL     1      -4.478  -2.349  -0.452  1.00  0.00    -0.373 OA
ATOM     13  H   UNL     1      -3.678  -2.589   0.063  1.00  0.00     0.213 HD
ENDBRANCH   6  12
BRANCH   7  14
ATOM     14  C   UNL     1      -2.439  -2.825  -2.737  1.00  0.00     0.177 C 
BRANCH  14  15
ATOM     15  C   UNL     1      -1.638  -1.945  -1.758  1.00  0.00     0.038 C 
BRANCH  15  16
ATOM     16  C   UNL     1      -1.403  -0.455  -2.091  1.00  0.00    -0.015 C 
ATOM     17  C   UNL     1      -0.055   0.055  -1.573  1.00  0.00     0.007 C 
ATOM     18  C   UNL     1      -2.513   0.398  -1.462  1.00  0.00     0.007 C 
ENDBRANCH  15  16
ENDBRANCH  14  15
BRANCH  14  19
ATOM     19  C   UNL     1      -2.065  -4.288  -3.156  1.00  0.00     0.245 C 
ATOM     20  O   UNL     1      -2.136  -5.158  -2.272  1.00  0.00    -0.272 OA
BRANCH  19  21
ATOM     21  N   UNL     1      -1.564  -4.630  -4.399  1.00  0.00    -0.332 N 
ATOM     22  C   UNL     1      -1.104  -3.693  -5.409  1.00  0.00     0.147 C 
BRANCH  21  23
ATOM     23  C   UNL     1      -1.495  -6.075  -4.749  1.00  0.00     0.178 C 
BRANCH  23  24
ATOM     24  C   UNL     1      -2.606  -6.563  -5.702  1.00  0.00     0.070 C 
BRANCH  24  25
ATOM     25  C   UNL     1      -3.486  -7.689  -5.213  1.00  0.00    -0.045 A 
ATOM     26  C   UNL     1      -3.865  -7.772  -3.867  1.00  0.00     0.004 A 
ATOM     27  C   UNL     1      -3.935  -8.675  -6.106  1.00  0.00     0.004 A 
ATOM     28  C   UNL     1      -4.665  -8.826  -3.420  1.00  0.00     0.000 A 
ATOM     29  C   UNL     1      -4.736  -9.727  -5.658  1.00  0.00     0.000 A 
ATOM     30  C   UNL     1      -5.097  -9.803  -4.314  1.00  0.00     0.000 A 
ENDBRANCH  24  25
ENDBRANCH  23  24
BRANCH  23  31
ATOM     31  C   UNL     1      -0.067  -6.539  -5.122  1.00  0.00     0.243 C 
ATOM     32  O   UNL     1       0.930  -6.306  -4.443  1.00  0.00    -0.273 OA
ATOM     33  N   UNL     1       0.023  -7.086  -6.390  1.00  0.00    -0.341 N 
ATOM     34  H   UNL     1      -0.842  -7.251  -6.910  1.00  0.00     0.164 HD
BRANCH  33  35
ATOM     35  C   UNL     1       1.295  -7.485  -7.000  1.00  0.00     0.194 C 
BRANCH  35  36
ATOM     36  C   UNL     1       1.751  -6.572  -8.173  1.00  0.00     0.017 C 
ATOM     37  C   UNL     1       2.506  -5.334  -7.657  1.00  0.00     0.010 C 
ATOM     38  C   UNL     1       0.587  -6.072  -9.037  1.00  0.00     0.010 C 
ENDBRANCH  35  36
BRANCH  35  39
ATOM     39  C   UNL     1       1.326  -8.989  -7.390  1.00  0.00     0.329 C 
ATOM     40  O   UNL     1       0.513  -9.817  -6.995  1.00  0.00    -0.250 OA
BRANCH  39  41
ATOM     41  O   UNL     1       2.311  -9.272  -8.295  1.00  0.00    -0.458 OA
BRANCH  41  42
ATOM     42  C   UNL     1       3.567  -9.741  -7.750  1.00  0.00     0.205 CG0
ATOM     43  C   UNL     1       4.686  -9.024  -8.504  1.00  0.00     0.056 C 
ATOM     44  G   UNL     1       3.633 -11.272  -7.913  1.00  0.00     0.000 G0
ENDBRANCH  41  42
ENDBRANCH  39  41
ENDBRANCH  35  39
ENDBRANCH  33  35
ENDBRANCH  23  31
ENDBRANCH  21  23
ENDBRANCH  19  21
ENDBRANCH  14  19
ENDBRANCH   7  14
ENDBRANCH   2   5
BRANCH   3  45
ATOM     45  C   UNL     1      -7.606   1.662  -4.450  1.00  0.00     0.171 C 
BRANCH  45  46
ATOM     46  N   UNL     1      -8.844   1.874  -5.190  1.00  0.00    -0.342 N 
ATOM     47  C   UNL     1      -9.951   2.452  -4.621  1.00  0.00     0.247 C 
ATOM     48  O   UNL     1      -9.958   2.898  -3.474  1.00  0.00    -0.273 OA
ATOM     49  H   UNL     1      -8.864   1.570  -6.161  1.00  0.00     0.164 HD
BRANCH  47  50
ATOM     50  C   UNL     1     -11.201   2.479  -5.513  1.00  0.00     0.212 CG0
ATOM     51  G   UNL     1     -12.283   3.293  -4.778  1.00  0.00     0.000 G0
BRANCH  50  52
ATOM     52  N   UNL     1     -10.771   3.091  -6.768  1.00  0.00    -0.339 N 
ATOM     53  C   UNL     1     -11.251   4.294  -7.225  1.00  0.00     0.243 C 
ATOM     54  O   UNL     1     -12.124   4.925  -6.636  1.00  0.00    -0.273 OA
ATOM     55  H   UNL     1     -10.130   2.562  -7.357  1.00  0.00     0.164 HD
BRANCH  53  56
ATOM     56  C   UNL     1     -10.715   4.696  -8.614  1.00  0.00     0.182 C 
BRANCH  56  57
ATOM     57  N   UNL     1      -9.258   4.859  -8.590  1.00  0.00    -0.344 N 
ATOM     58  C   UNL     1      -8.398   3.848  -8.943  1.00  0.00     0.220 C 
ATOM     59  O   UNL     1      -8.784   2.720  -9.231  1.00  0.00    -0.275 OA
ATOM     60  H   UNL     1      -8.903   5.802  -8.456  1.00  0.00     0.164 HD
BRANCH  58  61
ATOM     61  C   UNL     1      -6.938   4.258  -8.900  1.00  0.00     0.100 C 
BRANCH  61  62
ATOM     62  C   UNL     1      -5.965   3.081  -8.964  1.00  0.00     0.010 C 
BRANCH  62  63
ATOM     63  C   UNL     1      -4.488   3.481  -8.867  1.00  0.00     0.000 C 
BRANCH  63  64
ATOM     64  C   UNL     1      -3.864   3.904 -10.196  1.00  0.00    -0.003 C 
ATOM     65  C   UNL     1      -2.486   4.519  -9.992  1.00  0.00     0.004 C 
ENDBRANCH  63  64
ENDBRANCH  62  63
ENDBRANCH  61  62
ENDBRANCH  58  61
ENDBRANCH  56  57
BRANCH  56  66
ATOM     66  C   UNL     1     -11.426   5.938  -9.150  1.00  0.00     0.157 C 
BRANCH  66  67
ATOM     67  C   UNL     1     -11.070   6.190 -10.587  1.00  0.00     0.305 C 
ATOM     68  O   UNL     1     -10.228   5.602 -11.248  1.00  0.00    -0.252 OA
BRANCH  67  69
ATOM     69  O   UNL     1     -11.835   7.148 -11.143  1.00  0.00    -0.481 OA
ATOM     70  H   UNL     1     -12.696   6.711 -11.317  1.00  0.00     0.296 HD
ENDBRANCH  67  69
ENDBRANCH  66  67
ENDBRANCH  56  66
ENDBRANCH  53  56
ENDBRANCH  50  52
ENDBRANCH  47  50
ENDBRANCH  45  46
BRANCH  45  71
ATOM     71  C   UNL     1      -6.415   2.338  -5.138  1.00  0.00     0.037 C 
BRANCH  71  72
ATOM     72  C   UNL     1      -5.760   3.397  -4.246  1.00  0.00     0.026 C 
BRANCH  72  73
ATOM     73  C   UNL     1      -5.759   4.770  -4.915  1.00  0.00     0.146 C 
BRANCH  73  74
ATOM     74  N   UNL     1      -4.391   5.278  -4.889  1.00  0.00    -0.254 NA
ATOM     75  C   UNL     1      -4.005   6.008  -5.870  1.00  0.00     0.185 C 
ATOM     76  N   UNL     1      -2.752   6.492  -5.874  1.00  0.00    -0.370 N 
ATOM     77  N   UNL     1      -4.692   6.392  -6.959  1.00  0.00    -0.370 N 
ATOM     78  H   UNL     1      -2.163   6.243  -5.092  1.00  0.00     0.159 HD
ATOM     79  H   UNL     1      -2.336   6.945  -6.668  1.00  0.00     0.159 HD
ATOM     80  H   UNL     1      -5.651   6.106  -7.089  1.00  0.00     0.159 HD
ATOM     81  H   UNL     1      -4.319   7.065  -7.609  1.00  0.00     0.159 HD
ENDBRANCH  73  74
ENDBRANCH  72  73
ENDBRANCH  71  72
ENDBRANCH  45  71
ENDBRANCH   3  45
TORSDOF 20
ENDMDL
MODEL 31
REMARK VINA RESULT:    -5.945     13.128     16.794
REMARK INTER + INTRA:         -22.778
REMARK INTER:                 -18.139
REMARK INTRA:                  -4.639
REMARK UNBOUND:                -5.711
REMARK SMILES CCCCCC(=O)N[C@H](CC(=O)O)C(=O)N[C@H]1C(=O)N[C@H](CCCN=C(N)N)C(=O)N[C@@H]2CC[C@H](O)N(C2=O)[C@@H](CC(C)C)C(=O)N(C)[C@@H](Cc2ccccc2)C(=O)N[C@H](C(C)C)C(=O)O[C@@H]1C
REMARK SMILES IDX 30 1 31 2 29 3 32 5 35 6 37 7 34 8 38 9 33 10 39 11 36 12
REMARK SMILES IDX 40 14 41 15 42 16 43 17 44 18 45 19 46 20 47 21 48 22 49 23
REMARK SMILES IDX 50 24 51 25 52 26 56 27 53 28 55 29 54 30 57 31 58 32 59 33
REMARK SMILES IDX 60 35 61 36 62 37 63 38 64 39 65 40 66 41 67 42 68 43 21 45
REMARK SMILES IDX 20 46 18 47 19 48 17 50 16 52 14 53 15 54 9 56 8 57 6 58
REMARK SMILES IDX 7 59 5 61 4 62 3 63 2 64 1 65 10 66 11 67 12 68 13 69 22 71
REMARK SMILES IDX 23 72 24 73 25 74 26 75 27 76 28 77
REMARK H PARENT 31 4 36 13 59 34 20 49 16 55 8 60 13 70 27 78 27 79 28 80
REMARK H PARENT 28 81
REMARK Flexibility Score:  259.900
ROOT
ATOM      1  O   UNL     1      -4.754  -0.981  -1.060  1.00  0.00    -0.273 OA
ATOM      2  N   UNL     1      -3.170   0.356  -0.093  1.00  0.00    -0.343 N 
ATOM      3  C   UNL     1      -3.633  -0.472  -1.093  1.00  0.00     0.243 C 
ATOM      4  H   UNL     1      -2.247   0.769  -0.161  1.00  0.00     0.164 HD
ENDROOT
BRANCH   2   5
ATOM      5  C   UNL     1      -3.956   0.571   1.117  1.00  0.00     0.171 C 
ATOM      6  C   UNL     1      -3.727   2.467   3.297  1.00  0.00     0.214 C 
ATOM      7  N   UNL     1      -3.064   1.188   3.396  1.00  0.00    -0.303 N 
ATOM      8  C   UNL     1      -4.996   2.425   2.461  1.00  0.00     0.057 C 
ATOM      9  C   UNL     1      -3.090   0.257   2.371  1.00  0.00     0.247 C 
ATOM     10  C   UNL     1      -4.676   1.917   1.071  1.00  0.00     0.040 C 
ATOM     11  O   UNL     1      -2.448  -0.800   2.428  1.00  0.00    -0.272 OA
BRANCH   6  12
ATOM     12  O   UNL     1      -2.809   3.387   2.753  1.00  0.00    -0.373 OA
ATOM     13  H   UNL     1      -1.915   3.107   3.044  1.00  0.00     0.213 HD
ENDBRANCH   6  12
BRANCH   7  14
ATOM     14  C   UNL     1      -2.221   0.961   4.589  1.00  0.00     0.177 C 
BRANCH  14  15
ATOM     15  C   UNL     1      -0.707   1.148   4.368  1.00  0.00     0.038 C 
BRANCH  15  16
ATOM     16  C   UNL     1       0.278   0.085   4.904  1.00  0.00    -0.015 C 
ATOM     17  C   UNL     1      -0.014  -1.313   4.350  1.00  0.00     0.007 C 
ATOM     18  C   UNL     1       0.192   0.023   6.434  1.00  0.00     0.007 C 
ENDBRANCH  15  16
ENDBRANCH  14  15
BRANCH  14  19
ATOM     19  C   UNL     1      -3.002   1.352   5.890  1.00  0.00     0.245 C 
ATOM     20  O   UNL     1      -2.491   2.227   6.608  1.00  0.00    -0.272 OA
BRANCH  19  21
ATOM     21  N   UNL     1      -4.147   0.707   6.325  1.00  0.00    -0.332 N 
ATOM     22  C   UNL     1      -4.592  -0.605   5.891  1.00  0.00     0.147 C 
BRANCH  21  23
ATOM     23  C   UNL     1      -5.009   1.412   7.314  1.00  0.00     0.178 C 
BRANCH  23  24
ATOM     24  C   UNL     1      -6.524   1.298   7.046  1.00  0.00     0.070 C 
BRANCH  24  25
ATOM     25  C   UNL     1      -7.195   2.475   6.378  1.00  0.00    -0.045 A 
ATOM     26  C   UNL     1      -6.443   3.431   5.683  1.00  0.00     0.004 A 
ATOM     27  C   UNL     1      -8.588   2.630   6.451  1.00  0.00     0.004 A 
ATOM     28  C   UNL     1      -7.070   4.526   5.083  1.00  0.00     0.000 A 
ATOM     29  C   UNL     1      -9.213   3.724   5.850  1.00  0.00     0.000 A 
ATOM     30  C   UNL     1      -8.452   4.673   5.169  1.00  0.00     0.000 A 
ENDBRANCH  24  25
ENDBRANCH  23  24
BRANCH  23  31
ATOM     31  C   UNL     1      -4.585   1.152   8.779  1.00  0.00     0.243 C 
ATOM     32  O   UNL     1      -4.328   0.039   9.232  1.00  0.00    -0.273 OA
ATOM     33  N   UNL     1      -4.699   2.265   9.594  1.00  0.00    -0.341 N 
ATOM     34  H   UNL     1      -4.922   3.164   9.159  1.00  0.00     0.164 HD
BRANCH  33  35
ATOM     35  C   UNL     1      -4.465   2.224  11.040  1.00  0.00     0.194 C 
BRANCH  35  36
ATOM     36  C   UNL     1      -5.764   2.258  11.894  1.00  0.00     0.017 C 
ATOM     37  C   UNL     1      -6.314   0.841  12.132  1.00  0.00     0.010 C 
ATOM     38  C   UNL     1      -6.886   3.084  11.255  1.00  0.00     0.010 C 
ENDBRANCH  35  36
BRANCH  35  39
ATOM     39  C   UNL     1      -3.434   3.288  11.510  1.00  0.00     0.329 C 
ATOM     40  O   UNL     1      -2.404   3.023  12.119  1.00  0.00    -0.250 OA
BRANCH  39  41
ATOM     41  O   UNL     1      -3.760   4.548  11.091  1.00  0.00    -0.458 OA
BRANCH  41  42
ATOM     42  C   UNL     1      -4.041   5.517  12.130  1.00  0.00     0.205 CG0
ATOM     43  C   UNL     1      -2.802   6.398  12.275  1.00  0.00     0.056 C 
ATOM     44  G   UNL     1      -4.381   4.759  13.429  1.00  0.00     0.000 G0
ENDBRANCH  41  42
ENDBRANCH  39  41
ENDBRANCH  35  39
ENDBRANCH  33  35
ENDBRANCH  23  31
ENDBRANCH  21  23
ENDBRANCH  19  21
ENDBRANCH  14  19
ENDBRANCH   7  14
ENDBRANCH   2   5
BRANCH   3  45
ATOM     45  C   UNL     1      -2.662  -0.699  -2.260  1.00  0.00     0.171 C 
BRANCH  45  46
ATOM     46  N   UNL     1      -3.208  -1.821  -3.012  1.00  0.00    -0.342 N 
ATOM     47  C   UNL     1      -2.764  -2.150  -4.269  1.00  0.00     0.247 C 
ATOM     48  O   UNL     1      -1.829  -1.570  -4.821  1.00  0.00    -0.273 OA
ATOM     49  H   UNL     1      -3.946  -2.364  -2.569  1.00  0.00     0.164 HD
BRANCH  47  50
ATOM     50  C   UNL     1      -3.540  -3.282  -4.956  1.00  0.00     0.212 CG0
ATOM     51  G   UNL     1      -2.570  -3.997  -5.918  1.00  0.00     0.000 G0
BRANCH  50  52
ATOM     52  N   UNL     1      -4.017  -4.140  -3.875  1.00  0.00    -0.339 N 
ATOM     53  C   UNL     1      -3.401  -5.313  -3.513  1.00  0.00     0.243 C 
ATOM     54  O   UNL     1      -2.425  -5.760  -4.111  1.00  0.00    -0.273 OA
ATOM     55  H   UNL     1      -4.887  -3.881  -3.414  1.00  0.00     0.164 HD
BRANCH  53  56
ATOM     56  C   UNL     1      -4.135  -6.092  -2.403  1.00  0.00     0.182 C 
BRANCH  56  57
ATOM     57  N   UNL     1      -4.543  -7.420  -2.872  1.00  0.00    -0.344 N 
ATOM     58  C   UNL     1      -5.325  -7.598  -3.987  1.00  0.00     0.220 C 
ATOM     59  O   UNL     1      -5.795  -6.662  -4.624  1.00  0.00    -0.275 OA
ATOM     60  H   UNL     1      -4.093  -8.220  -2.436  1.00  0.00     0.164 HD
BRANCH  58  61
ATOM     61  C   UNL     1      -5.574  -9.057  -4.320  1.00  0.00     0.100 C 
BRANCH  61  62
ATOM     62  C   UNL     1      -5.058 -10.028  -3.258  1.00  0.00     0.010 C 
BRANCH  62  63
ATOM     63  C   UNL     1      -6.141 -10.547  -2.303  1.00  0.00     0.000 C 
BRANCH  63  64
ATOM     64  C   UNL     1      -7.558 -10.491  -2.872  1.00  0.00    -0.003 C 
ATOM     65  C   UNL     1      -8.521  -9.827  -1.899  1.00  0.00     0.004 C 
ENDBRANCH  63  64
ENDBRANCH  62  63
ENDBRANCH  61  62
ENDBRANCH  58  61
ENDBRANCH  56  57
BRANCH  56  66
ATOM     66  C   UNL     1      -5.309  -5.292  -1.841  1.00  0.00     0.157 C 
BRANCH  66  67
ATOM     67  C   UNL     1      -4.945  -4.629  -0.544  1.00  0.00     0.305 C 
ATOM     68  O   UNL     1      -5.436  -4.846   0.553  1.00  0.00    -0.252 OA
BRANCH  67  69
ATOM     69  O   UNL     1      -3.933  -3.752  -0.684  1.00  0.00    -0.481 OA
ATOM     70  H   UNL     1      -4.197  -3.183  -1.438  1.00  0.00     0.296 HD
ENDBRANCH  67  69
ENDBRANCH  66  67
ENDBRANCH  56  66
ENDBRANCH  53  56
ENDBRANCH  50  52
ENDBRANCH  47  50
ENDBRANCH  45  46
BRANCH  45  71
ATOM     71  C   UNL     1      -1.255  -1.002  -1.733  1.00  0.00     0.037 C 
BRANCH  71  72
ATOM     72  C   UNL     1      -0.260   0.109  -2.077  1.00  0.00     0.026 C 
BRANCH  72  73
ATOM     73  C   UNL     1       1.182  -0.338  -1.847  1.00  0.00     0.146 C 
BRANCH  73  74
ATOM     74  N   UNL     1       1.330  -0.652  -0.429  1.00  0.00    -0.254 NA
ATOM     75  C   UNL     1       2.518  -0.809   0.028  1.00  0.00     0.185 C 
ATOM     76  N   UNL     1       2.687  -1.097   1.329  1.00  0.00    -0.370 N 
ATOM     77  N   UNL     1       3.691  -0.727  -0.622  1.00  0.00    -0.370 N 
ATOM     78  H   UNL     1       1.852  -1.185   1.891  1.00  0.00     0.159 HD
ATOM     79  H   UNL     1       3.568  -1.375   1.724  1.00  0.00     0.159 HD
ATOM     80  H   UNL     1       3.719  -0.512  -1.607  1.00  0.00     0.159 HD
ATOM     81  H   UNL     1       4.570  -0.755  -0.132  1.00  0.00     0.159 HD
ENDBRANCH  73  74
ENDBRANCH  72  73
ENDBRANCH  71  72
ENDBRANCH  45  71
ENDBRANCH   3  45
TORSDOF 20
ENDMDL
MODEL 32
REMARK VINA RESULT:    -5.923     14.681     20.078
REMARK INTER + INTRA:         -22.714
REMARK INTER:                 -15.267
REMARK INTRA:                  -7.447
REMARK UNBOUND:                -5.711
REMARK SMILES CCCCCC(=O)N[C@H](CC(=O)O)C(=O)N[C@H]1C(=O)N[C@H](CCCN=C(N)N)C(=O)N[C@@H]2CC[C@H](O)N(C2=O)[C@@H](CC(C)C)C(=O)N(C)[C@@H](Cc2ccccc2)C(=O)N[C@H](C(C)C)C(=O)O[C@@H]1C
REMARK SMILES IDX 30 1 31 2 29 3 32 5 35 6 37 7 34 8 38 9 33 10 39 11 36 12
REMARK SMILES IDX 40 14 41 15 42 16 43 17 44 18 45 19 46 20 47 21 48 22 49 23
REMARK SMILES IDX 50 24 51 25 52 26 56 27 53 28 55 29 54 30 57 31 58 32 59 33
REMARK SMILES IDX 60 35 61 36 62 37 63 38 64 39 65 40 66 41 67 42 68 43 21 45
REMARK SMILES IDX 20 46 18 47 19 48 17 50 16 52 14 53 15 54 9 56 8 57 6 58
REMARK SMILES IDX 7 59 5 61 4 62 3 63 2 64 1 65 10 66 11 67 12 68 13 69 22 71
REMARK SMILES IDX 23 72 24 73 25 74 26 75 27 76 28 77
REMARK H PARENT 31 4 36 13 59 34 20 49 16 55 8 60 13 70 27 78 27 79 28 80
REMARK H PARENT 28 81
REMARK Flexibility Score:  259.900
ROOT
ATOM      1  O   UNL     1      -3.415  -5.262  -1.658  1.00  0.00    -0.273 OA
ATOM      2  N   UNL     1      -5.153  -4.309  -2.799  1.00  0.00    -0.343 N 
ATOM      3  C   UNL     1      -3.826  -4.646  -2.642  1.00  0.00     0.243 C 
ATOM      4  H   UNL     1      -5.457  -3.815  -3.629  1.00  0.00     0.164 HD
ENDROOT
BRANCH   2   5
ATOM      5  C   UNL     1      -6.116  -4.569  -1.735  1.00  0.00     0.171 C 
ATOM      6  C   UNL     1      -6.004  -6.197   0.662  1.00  0.00     0.214 C 
ATOM      7  N   UNL     1      -6.503  -6.773  -0.565  1.00  0.00    -0.303 N 
ATOM      8  C   UNL     1      -6.260  -4.702   0.772  1.00  0.00     0.057 C 
ATOM      9  C   UNL     1      -6.536  -6.067  -1.757  1.00  0.00     0.247 C 
ATOM     10  C   UNL     1      -5.636  -3.987  -0.406  1.00  0.00     0.040 C 
ATOM     11  O   UNL     1      -6.883  -6.594  -2.822  1.00  0.00    -0.272 OA
BRANCH   6  12
ATOM     12  O   UNL     1      -4.623  -6.466   0.734  1.00  0.00    -0.373 OA
ATOM     13  H   UNL     1      -4.250  -5.872   1.420  1.00  0.00     0.213 HD
ENDBRANCH   6  12
BRANCH   7  14
ATOM     14  C   UNL     1      -6.846  -8.210  -0.540  1.00  0.00     0.177 C 
BRANCH  14  15
ATOM     15  C   UNL     1      -5.658  -9.165  -0.310  1.00  0.00     0.038 C 
BRANCH  15  16
ATOM     16  C   UNL     1      -4.853  -9.683  -1.522  1.00  0.00    -0.015 C 
ATOM     17  C   UNL     1      -3.933  -8.611  -2.114  1.00  0.00     0.007 C 
ATOM     18  C   UNL     1      -5.814 -10.151  -2.622  1.00  0.00     0.007 C 
ENDBRANCH  15  16
ENDBRANCH  14  15
BRANCH  14  19
ATOM     19  C   UNL     1      -8.295  -8.413   0.023  1.00  0.00     0.245 C 
ATOM     20  O   UNL     1      -8.403  -8.551   1.253  1.00  0.00    -0.272 OA
BRANCH  19  21
ATOM     21  N   UNL     1      -9.418  -8.555  -0.772  1.00  0.00    -0.332 N 
ATOM     22  C   UNL     1      -9.427  -9.044  -2.139  1.00  0.00     0.147 C 
BRANCH  21  23
ATOM     23  C   UNL     1     -10.735  -8.169  -0.192  1.00  0.00     0.178 C 
BRANCH  23  24
ATOM     24  C   UNL     1     -11.436  -6.997  -0.910  1.00  0.00     0.070 C 
BRANCH  24  25
ATOM     25  C   UNL     1     -10.727  -5.663  -0.906  1.00  0.00    -0.045 A 
ATOM     26  C   UNL     1     -10.393  -5.031   0.299  1.00  0.00     0.004 A 
ATOM     27  C   UNL     1     -10.395  -5.035  -2.116  1.00  0.00     0.004 A 
ATOM     28  C   UNL     1      -9.753  -3.790   0.294  1.00  0.00     0.000 A 
ATOM     29  C   UNL     1      -9.754  -3.795  -2.119  1.00  0.00     0.000 A 
ATOM     30  C   UNL     1      -9.436  -3.173  -0.914  1.00  0.00     0.000 A 
ENDBRANCH  24  25
ENDBRANCH  23  24
BRANCH  23  31
ATOM     31  C   UNL     1     -11.642  -9.385   0.110  1.00  0.00     0.243 C 
ATOM     32  O   UNL     1     -11.244 -10.427   0.625  1.00  0.00    -0.273 OA
ATOM     33  N   UNL     1     -12.916  -9.270  -0.420  1.00  0.00    -0.341 N 
ATOM     34  H   UNL     1     -13.187  -8.379  -0.842  1.00  0.00     0.164 HD
BRANCH  33  35
ATOM     35  C   UNL     1     -13.906 -10.349  -0.360  1.00  0.00     0.194 C 
BRANCH  35  36
ATOM     36  C   UNL     1     -14.295 -10.932  -1.747  1.00  0.00     0.017 C 
ATOM     37  C   UNL     1     -15.416 -11.979  -1.620  1.00  0.00     0.010 C 
ATOM     38  C   UNL     1     -13.121 -11.603  -2.471  1.00  0.00     0.010 C 
ENDBRANCH  35  36
BRANCH  35  39
ATOM     39  C   UNL     1     -15.157  -9.966   0.480  1.00  0.00     0.329 C 
ATOM     40  O   UNL     1     -15.979  -9.123   0.141  1.00  0.00    -0.250 OA
BRANCH  39  41
ATOM     41  O   UNL     1     -15.286 -10.737   1.602  1.00  0.00    -0.458 OA
BRANCH  41  42
ATOM     42  C   UNL     1     -16.620 -11.211   1.903  1.00  0.00     0.205 CG0
ATOM     43  C   UNL     1     -17.035 -10.585   3.233  1.00  0.00     0.056 C 
ATOM     44  G   UNL     1     -16.593 -12.752   1.960  1.00  0.00     0.000 G0
ENDBRANCH  41  42
ENDBRANCH  39  41
ENDBRANCH  35  39
ENDBRANCH  33  35
ENDBRANCH  23  31
ENDBRANCH  21  23
ENDBRANCH  19  21
ENDBRANCH  14  19
ENDBRANCH   7  14
ENDBRANCH   2   5
BRANCH   3  45
ATOM     45  C   UNL     1      -2.899  -4.219  -3.788  1.00  0.00     0.171 C 
BRANCH  45  46
ATOM     46  N   UNL     1      -2.688  -2.789  -3.612  1.00  0.00    -0.342 N 
ATOM     47  C   UNL     1      -1.678  -2.110  -4.246  1.00  0.00     0.247 C 
ATOM     48  O   UNL     1      -0.926  -2.642  -5.063  1.00  0.00    -0.273 OA
ATOM     49  H   UNL     1      -3.325  -2.297  -2.987  1.00  0.00     0.164 HD
BRANCH  47  50
ATOM     50  C   UNL     1      -1.533  -0.635  -3.843  1.00  0.00     0.212 CG0
ATOM     51  G   UNL     1      -0.996   0.133  -5.067  1.00  0.00     0.000 G0
BRANCH  50  52
ATOM     52  N   UNL     1      -2.870  -0.209  -3.436  1.00  0.00    -0.339 N 
ATOM     53  C   UNL     1      -3.120   0.492  -2.282  1.00  0.00     0.243 C 
ATOM     54  O   UNL     1      -2.240   0.771  -1.473  1.00  0.00    -0.273 OA
ATOM     55  H   UNL     1      -3.656  -0.507  -4.010  1.00  0.00     0.164 HD
BRANCH  53  56
ATOM     56  C   UNL     1      -4.617   0.755  -2.020  1.00  0.00     0.182 C 
BRANCH  56  57
ATOM     57  N   UNL     1      -5.096  -0.028  -0.877  1.00  0.00    -0.344 N 
ATOM     58  C   UNL     1      -5.615   0.559   0.252  1.00  0.00     0.220 C 
ATOM     59  O   UNL     1      -5.646   1.775   0.413  1.00  0.00    -0.275 OA
ATOM     60  H   UNL     1      -5.182  -1.032  -1.010  1.00  0.00     0.164 HD
BRANCH  58  61
ATOM     61  C   UNL     1      -6.102  -0.443   1.282  1.00  0.00     0.100 C 
BRANCH  61  62
ATOM     62  C   UNL     1      -4.976  -1.194   1.992  1.00  0.00     0.010 C 
BRANCH  62  63
ATOM     63  C   UNL     1      -3.902  -0.283   2.602  1.00  0.00     0.000 C 
BRANCH  63  64
ATOM     64  C   UNL     1      -3.296  -0.812   3.900  1.00  0.00    -0.003 C 
ATOM     65  C   UNL     1      -1.776  -0.727   3.878  1.00  0.00     0.004 C 
ENDBRANCH  63  64
ENDBRANCH  62  63
ENDBRANCH  61  62
ENDBRANCH  58  61
ENDBRANCH  56  57
BRANCH  56  66
ATOM     66  C   UNL     1      -5.456   0.517  -3.274  1.00  0.00     0.157 C 
BRANCH  66  67
ATOM     67  C   UNL     1      -6.103  -0.838  -3.246  1.00  0.00     0.305 C 
ATOM     68  O   UNL     1      -7.094  -1.163  -2.610  1.00  0.00    -0.252 OA
BRANCH  67  69
ATOM     69  O   UNL     1      -5.495  -1.713  -4.070  1.00  0.00    -0.481 OA
ATOM     70  H   UNL     1      -5.874  -2.585  -3.831  1.00  0.00     0.296 HD
ENDBRANCH  67  69
ENDBRANCH  66  67
ENDBRANCH  56  66
ENDBRANCH  53  56
ENDBRANCH  50  52
ENDBRANCH  47  50
ENDBRANCH  45  46
BRANCH  45  71
ATOM     71  C   UNL     1      -3.545  -4.533  -5.142  1.00  0.00     0.037 C 
BRANCH  71  72
ATOM     72  C   UNL     1      -3.459  -6.022  -5.490  1.00  0.00     0.026 C 
BRANCH  72  73
ATOM     73  C   UNL     1      -4.846  -6.641  -5.646  1.00  0.00     0.146 C 
BRANCH  73  74
ATOM     74  N   UNL     1      -4.700  -8.092  -5.566  1.00  0.00    -0.254 NA
ATOM     75  C   UNL     1      -4.815  -8.766  -6.650  1.00  0.00     0.185 C 
ATOM     76  N   UNL     1      -4.683 -10.102  -6.609  1.00  0.00    -0.370 N 
ATOM     77  N   UNL     1      -5.059  -8.326  -7.897  1.00  0.00    -0.370 N 
ATOM     78  H   UNL     1      -4.505 -10.516  -5.706  1.00  0.00     0.159 HD
ATOM     79  H   UNL     1      -4.902 -10.704  -7.383  1.00  0.00     0.159 HD
ATOM     80  H   UNL     1      -5.177  -7.341  -8.081  1.00  0.00     0.159 HD
ATOM     81  H   UNL     1      -5.013  -8.941  -8.693  1.00  0.00     0.159 HD
ENDBRANCH  73  74
ENDBRANCH  72  73
ENDBRANCH  71  72
ENDBRANCH  45  71
ENDBRANCH   3  45
TORSDOF 20
ENDMDL
MODEL 33
REMARK VINA RESULT:    -5.880     11.061     16.478
REMARK INTER + INTRA:         -22.591
REMARK INTER:                 -17.311
REMARK INTRA:                  -5.280
REMARK UNBOUND:                -5.711
REMARK SMILES CCCCCC(=O)N[C@H](CC(=O)O)C(=O)N[C@H]1C(=O)N[C@H](CCCN=C(N)N)C(=O)N[C@@H]2CC[C@H](O)N(C2=O)[C@@H](CC(C)C)C(=O)N(C)[C@@H](Cc2ccccc2)C(=O)N[C@H](C(C)C)C(=O)O[C@@H]1C
REMARK SMILES IDX 30 1 31 2 29 3 32 5 35 6 37 7 34 8 38 9 33 10 39 11 36 12
REMARK SMILES IDX 40 14 41 15 42 16 43 17 44 18 45 19 46 20 47 21 48 22 49 23
REMARK SMILES IDX 50 24 51 25 52 26 56 27 53 28 55 29 54 30 57 31 58 32 59 33
REMARK SMILES IDX 60 35 61 36 62 37 63 38 64 39 65 40 66 41 67 42 68 43 21 45
REMARK SMILES IDX 20 46 18 47 19 48 17 50 16 52 14 53 15 54 9 56 8 57 6 58
REMARK SMILES IDX 7 59 5 61 4 62 3 63 2 64 1 65 10 66 11 67 12 68 13 69 22 71
REMARK SMILES IDX 23 72 24 73 25 74 26 75 27 76 28 77
REMARK H PARENT 31 4 36 13 59 34 20 49 16 55 8 60 13 70 27 78 27 79 28 80
REMARK H PARENT 28 81
REMARK Flexibility Score:  259.900
ROOT
ATOM      1  O   UNL     1      -7.955   3.148  -2.903  1.00  0.00    -0.273 OA
ATOM      2  N   UNL     1      -5.871   2.213  -3.019  1.00  0.00    -0.343 N 
ATOM      3  C   UNL     1      -6.842   3.103  -3.426  1.00  0.00     0.243 C 
ATOM      4  H   UNL     1      -4.961   2.214  -3.462  1.00  0.00     0.164 HD
ENDROOT
BRANCH   2   5
ATOM      5  C   UNL     1      -6.171   1.195  -2.017  1.00  0.00     0.171 C 
ATOM      6  C   UNL     1      -4.492  -0.398  -0.272  1.00  0.00     0.214 C 
ATOM      7  N   UNL     1      -4.850  -0.910  -1.574  1.00  0.00    -0.303 N 
ATOM      8  C   UNL     1      -5.546   0.522   0.324  1.00  0.00     0.057 C 
ATOM      9  C   UNL     1      -5.606  -0.180  -2.477  1.00  0.00     0.247 C 
ATOM     10  C   UNL     1      -5.805   1.680  -0.616  1.00  0.00     0.040 C 
ATOM     11  O   UNL     1      -5.835  -0.589  -3.622  1.00  0.00    -0.272 OA
BRANCH   6  12
ATOM     12  O   UNL     1      -3.262   0.278  -0.398  1.00  0.00    -0.373 OA
ATOM     13  H   UNL     1      -3.056   0.666   0.480  1.00  0.00     0.213 HD
ENDBRANCH   6  12
BRANCH   7  14
ATOM     14  C   UNL     1      -4.250  -2.200  -1.975  1.00  0.00     0.177 C 
BRANCH  14  15
ATOM     15  C   UNL     1      -2.714  -2.200  -2.099  1.00  0.00     0.038 C 
BRANCH  15  16
ATOM     16  C   UNL     1      -2.059  -1.850  -3.454  1.00  0.00    -0.015 C 
ATOM     17  C   UNL     1      -1.818  -0.346  -3.616  1.00  0.00     0.007 C 
ATOM     18  C   UNL     1      -2.962  -2.319  -4.602  1.00  0.00     0.007 C 
ENDBRANCH  15  16
ENDBRANCH  14  15
BRANCH  14  19
ATOM     19  C   UNL     1      -5.117  -3.392  -1.440  1.00  0.00     0.245 C 
ATOM     20  O   UNL     1      -4.999  -3.673  -0.236  1.00  0.00    -0.272 OA
BRANCH  19  21
ATOM     21  N   UNL     1      -5.900  -4.198  -2.247  1.00  0.00    -0.332 N 
ATOM     22  C   UNL     1      -7.141  -3.798  -2.886  1.00  0.00     0.147 C 
BRANCH  21  23
ATOM     23  C   UNL     1      -5.451  -5.599  -2.477  1.00  0.00     0.178 C 
BRANCH  23  24
ATOM     24  C   UNL     1      -3.962  -5.858  -2.168  1.00  0.00     0.070 C 
BRANCH  24  25
ATOM     25  C   UNL     1      -3.086  -6.293  -3.320  1.00  0.00    -0.045 A 
ATOM     26  C   UNL     1      -1.961  -5.545  -3.688  1.00  0.00     0.004 A 
ATOM     27  C   UNL     1      -3.394  -7.455  -4.044  1.00  0.00     0.004 A 
ATOM     28  C   UNL     1      -1.166  -5.944  -4.765  1.00  0.00     0.000 A 
ATOM     29  C   UNL     1      -2.598  -7.853  -5.119  1.00  0.00     0.000 A 
ATOM     30  C   UNL     1      -1.486  -7.095  -5.480  1.00  0.00     0.000 A 
ENDBRANCH  24  25
ENDBRANCH  23  24
BRANCH  23  31
ATOM     31  C   UNL     1      -6.429  -6.649  -1.898  1.00  0.00     0.243 C 
ATOM     32  O   UNL     1      -6.970  -6.552  -0.800  1.00  0.00    -0.273 OA
ATOM     33  N   UNL     1      -6.502  -7.810  -2.650  1.00  0.00    -0.341 N 
ATOM     34  H   UNL     1      -6.025  -7.833  -3.554  1.00  0.00     0.164 HD
BRANCH  33  35
ATOM     35  C   UNL     1      -7.272  -8.985  -2.232  1.00  0.00     0.194 C 
BRANCH  35  36
ATOM     36  C   UNL     1      -6.464 -10.003  -1.378  1.00  0.00     0.017 C 
ATOM     37  C   UNL     1      -6.933 -10.001   0.087  1.00  0.00     0.010 C 
ATOM     38  C   UNL     1      -4.955  -9.727  -1.377  1.00  0.00     0.010 C 
ENDBRANCH  35  36
BRANCH  35  39
ATOM     39  C   UNL     1      -8.002  -9.674  -3.418  1.00  0.00     0.329 C 
ATOM     40  O   UNL     1      -7.559  -9.727  -4.559  1.00  0.00    -0.250 OA
BRANCH  39  41
ATOM     41  O   UNL     1      -9.158 -10.292  -3.028  1.00  0.00    -0.458 OA
BRANCH  41  42
ATOM     42  C   UNL     1      -9.223 -11.722  -3.240  1.00  0.00     0.205 CG0
ATOM     43  C   UNL     1     -10.482 -12.003  -4.059  1.00  0.00     0.056 C 
ATOM     44  G   UNL     1      -9.245 -12.422  -1.867  1.00  0.00     0.000 G0
ENDBRANCH  41  42
ENDBRANCH  39  41
ENDBRANCH  35  39
ENDBRANCH  33  35
ENDBRANCH  23  31
ENDBRANCH  21  23
ENDBRANCH  19  21
ENDBRANCH  14  19
ENDBRANCH   7  14
ENDBRANCH   2   5
BRANCH   3  45
ATOM     45  C   UNL     1      -6.430   4.049  -4.562  1.00  0.00     0.171 C 
BRANCH  45  46
ATOM     46  N   UNL     1      -5.863   5.223  -3.911  1.00  0.00    -0.342 N 
ATOM     47  C   UNL     1      -4.746   5.861  -4.388  1.00  0.00     0.247 C 
ATOM     48  O   UNL     1      -4.186   5.536  -5.436  1.00  0.00    -0.273 OA
ATOM     49  H   UNL     1      -6.330   5.560  -3.071  1.00  0.00     0.164 HD
BRANCH  47  50
ATOM     50  C   UNL     1      -4.222   7.002  -3.503  1.00  0.00     0.212 CG0
ATOM     51  G   UNL     1      -3.476   7.996  -4.416  1.00  0.00     0.000 G0
BRANCH  50  52
ATOM     52  N   UNL     1      -5.405   7.577  -2.868  1.00  0.00    -0.339 N 
ATOM     53  C   UNL     1      -5.394   8.126  -1.609  1.00  0.00     0.243 C 
ATOM     54  O   UNL     1      -4.395   8.128  -0.896  1.00  0.00    -0.273 OA
ATOM     55  H   UNL     1      -6.290   7.505  -3.365  1.00  0.00     0.164 HD
BRANCH  53  56
ATOM     56  C   UNL     1      -6.779   8.591  -1.116  1.00  0.00     0.182 C 
BRANCH  56  57
ATOM     57  N   UNL     1      -6.728   9.972  -0.626  1.00  0.00    -0.344 N 
ATOM     58  C   UNL     1      -7.781  10.843  -0.766  1.00  0.00     0.220 C 
ATOM     59  O   UNL     1      -8.807  10.551  -1.372  1.00  0.00    -0.275 OA
ATOM     60  H   UNL     1      -5.941  10.221  -0.032  1.00  0.00     0.164 HD
BRANCH  58  61
ATOM     61  C   UNL     1      -7.529  12.199  -0.134  1.00  0.00     0.100 C 
BRANCH  61  62
ATOM     62  C   UNL     1      -6.162  12.319   0.541  1.00  0.00     0.010 C 
BRANCH  62  63
ATOM     63  C   UNL     1      -5.344  13.536   0.091  1.00  0.00     0.000 C 
BRANCH  63  64
ATOM     64  C   UNL     1      -3.862  13.245  -0.138  1.00  0.00    -0.003 C 
ATOM     65  C   UNL     1      -3.629  11.779  -0.472  1.00  0.00     0.004 C 
ENDBRANCH  63  64
ENDBRANCH  62  63
ENDBRANCH  61  62
ENDBRANCH  58  61
ENDBRANCH  56  57
BRANCH  56  66
ATOM     66  C   UNL     1      -7.354   7.632  -0.075  1.00  0.00     0.157 C 
BRANCH  66  67
ATOM     67  C   UNL     1      -7.597   6.272  -0.664  1.00  0.00     0.305 C 
ATOM     68  O   UNL     1      -8.057   6.023  -1.768  1.00  0.00    -0.252 OA
BRANCH  67  69
ATOM     69  O   UNL     1      -7.195   5.281   0.154  1.00  0.00    -0.481 OA
ATOM     70  H   UNL     1      -7.481   4.456  -0.293  1.00  0.00     0.296 HD
ENDBRANCH  67  69
ENDBRANCH  66  67
ENDBRANCH  56  66
ENDBRANCH  53  56
ENDBRANCH  50  52
ENDBRANCH  47  50
ENDBRANCH  45  46
BRANCH  45  71
ATOM     71  C   UNL     1      -7.645   4.411  -5.422  1.00  0.00     0.037 C 
BRANCH  71  72
ATOM     72  C   UNL     1      -7.351   4.280  -6.919  1.00  0.00     0.026 C 
BRANCH  72  73
ATOM     73  C   UNL     1      -7.024   5.634  -7.546  1.00  0.00     0.146 C 
BRANCH  73  74
ATOM     74  N   UNL     1      -8.085   5.956  -8.494  1.00  0.00    -0.254 NA
ATOM     75  C   UNL     1      -8.955   6.830  -8.146  1.00  0.00     0.185 C 
ATOM     76  N   UNL     1      -9.943   7.149  -8.998  1.00  0.00    -0.370 N 
ATOM     77  N   UNL     1      -9.044   7.523  -6.997  1.00  0.00    -0.370 N 
ATOM     78  H   UNL     1      -9.955   6.666  -9.885  1.00  0.00     0.159 HD
ATOM     79  H   UNL     1     -10.736   7.711  -8.742  1.00  0.00     0.159 HD
ATOM     80  H   UNL     1      -8.364   7.390  -6.264  1.00  0.00     0.159 HD
ATOM     81  H   UNL     1      -9.707   8.271  -6.881  1.00  0.00     0.159 HD
ENDBRANCH  73  74
ENDBRANCH  72  73
ENDBRANCH  71  72
ENDBRANCH  45  71
ENDBRANCH   3  45
TORSDOF 20
ENDMDL
MODEL 34
REMARK VINA RESULT:    -5.876     12.734     18.726
REMARK INTER + INTRA:         -22.579
REMARK INTER:                 -15.729
REMARK INTRA:                  -6.850
REMARK UNBOUND:                -5.711
REMARK SMILES CCCCCC(=O)N[C@H](CC(=O)O)C(=O)N[C@H]1C(=O)N[C@H](CCCN=C(N)N)C(=O)N[C@@H]2CC[C@H](O)N(C2=O)[C@@H](CC(C)C)C(=O)N(C)[C@@H](Cc2ccccc2)C(=O)N[C@H](C(C)C)C(=O)O[C@@H]1C
REMARK SMILES IDX 30 1 31 2 29 3 32 5 35 6 37 7 34 8 38 9 33 10 39 11 36 12
REMARK SMILES IDX 40 14 41 15 42 16 43 17 44 18 45 19 46 20 47 21 48 22 49 23
REMARK SMILES IDX 50 24 51 25 52 26 56 27 53 28 55 29 54 30 57 31 58 32 59 33
REMARK SMILES IDX 60 35 61 36 62 37 63 38 64 39 65 40 66 41 67 42 68 43 21 45
REMARK SMILES IDX 20 46 18 47 19 48 17 50 16 52 14 53 15 54 9 56 8 57 6 58
REMARK SMILES IDX 7 59 5 61 4 62 3 63 2 64 1 65 10 66 11 67 12 68 13 69 22 71
REMARK SMILES IDX 23 72 24 73 25 74 26 75 27 76 28 77
REMARK H PARENT 31 4 36 13 59 34 20 49 16 55 8 60 13 70 27 78 27 79 28 80
REMARK H PARENT 28 81
REMARK Flexibility Score:  259.900
ROOT
ATOM      1  O   UNL     1      -4.770  -3.751  -3.043  1.00  0.00    -0.273 OA
ATOM      2  N   UNL     1      -5.833  -2.069  -1.915  1.00  0.00    -0.343 N 
ATOM      3  C   UNL     1      -5.470  -3.386  -2.097  1.00  0.00     0.243 C 
ATOM      4  H   UNL     1      -6.398  -1.803  -1.118  1.00  0.00     0.164 HD
ENDROOT
BRANCH   2   5
ATOM      5  C   UNL     1      -5.497  -1.061  -2.915  1.00  0.00     0.171 C 
ATOM      6  C   UNL     1      -6.004   1.789  -3.077  1.00  0.00     0.214 C 
ATOM      7  N   UNL     1      -6.953   0.865  -3.653  1.00  0.00    -0.303 N 
ATOM      8  C   UNL     1      -4.574   1.272  -3.094  1.00  0.00     0.057 C 
ATOM      9  C   UNL     1      -6.798  -0.509  -3.566  1.00  0.00     0.247 C 
ATOM     10  C   UNL     1      -4.498  -0.048  -2.357  1.00  0.00     0.040 C 
ATOM     11  O   UNL     1      -7.658  -1.295  -3.985  1.00  0.00    -0.272 OA
BRANCH   6  12
ATOM     12  O   UNL     1      -6.414   2.061  -1.757  1.00  0.00    -0.373 OA
ATOM     13  H   UNL     1      -7.267   2.542  -1.815  1.00  0.00     0.213 HD
ENDBRANCH   6  12
BRANCH   7  14
ATOM     14  C   UNL     1      -8.190   1.441  -4.221  1.00  0.00     0.177 C 
BRANCH  14  15
ATOM     15  C   UNL     1      -9.400   1.466  -3.266  1.00  0.00     0.038 C 
BRANCH  15  16
ATOM     16  C   UNL     1     -10.681   0.689  -3.641  1.00  0.00    -0.015 C 
ATOM     17  C   UNL     1     -10.836  -0.605  -2.835  1.00  0.00     0.007 C 
ATOM     18  C   UNL     1     -10.651   0.326  -5.131  1.00  0.00     0.007 C 
ENDBRANCH  15  16
ENDBRANCH  14  15
BRANCH  14  19
ATOM     19  C   UNL     1      -7.841   2.550  -5.272  1.00  0.00     0.245 C 
ATOM     20  O   UNL     1      -6.963   2.273  -6.106  1.00  0.00    -0.272 OA
BRANCH  19  21
ATOM     21  N   UNL     1      -8.368   3.829  -5.248  1.00  0.00    -0.332 N 
ATOM     22  C   UNL     1      -7.700   5.005  -4.720  1.00  0.00     0.147 C 
BRANCH  21  23
ATOM     23  C   UNL     1      -9.738   4.028  -5.795  1.00  0.00     0.178 C 
BRANCH  23  24
ATOM     24  C   UNL     1     -10.693   4.815  -4.875  1.00  0.00     0.070 C 
BRANCH  24  25
ATOM     25  C   UNL     1     -11.856   4.056  -4.280  1.00  0.00    -0.045 A 
ATOM     26  C   UNL     1     -12.067   4.035  -2.895  1.00  0.00     0.004 A 
ATOM     27  C   UNL     1     -12.743   3.355  -5.111  1.00  0.00     0.004 A 
ATOM     28  C   UNL     1     -13.134   3.317  -2.352  1.00  0.00     0.000 A 
ATOM     29  C   UNL     1     -13.810   2.639  -4.567  1.00  0.00     0.000 A 
ATOM     30  C   UNL     1     -14.003   2.618  -3.187  1.00  0.00     0.000 A 
ENDBRANCH  24  25
ENDBRANCH  23  24
BRANCH  23  31
ATOM     31  C   UNL     1      -9.737   4.483  -7.274  1.00  0.00     0.243 C 
ATOM     32  O   UNL     1      -8.750   4.443  -8.004  1.00  0.00    -0.273 OA
ATOM     33  N   UNL     1     -10.906   5.118  -7.659  1.00  0.00    -0.341 N 
ATOM     34  H   UNL     1     -11.692   5.124  -7.004  1.00  0.00     0.164 HD
BRANCH  33  35
ATOM     35  C   UNL     1     -11.083   5.735  -8.976  1.00  0.00     0.194 C 
BRANCH  35  36
ATOM     36  C   UNL     1     -11.441   7.248  -8.925  1.00  0.00     0.017 C 
ATOM     37  C   UNL     1     -10.397   8.043  -8.123  1.00  0.00     0.010 C 
ATOM     38  C   UNL     1     -12.812   7.523  -8.295  1.00  0.00     0.010 C 
ENDBRANCH  35  36
BRANCH  35  39
ATOM     39  C   UNL     1     -12.062   4.938  -9.883  1.00  0.00     0.329 C 
ATOM     40  O   UNL     1     -12.718   3.975  -9.504  1.00  0.00    -0.250 OA
BRANCH  39  41
ATOM     41  O   UNL     1     -12.176   5.484 -11.131  1.00  0.00    -0.458 OA
BRANCH  41  42
ATOM     42  C   UNL     1     -13.520   5.771 -11.585  1.00  0.00     0.205 CG0
ATOM     43  C   UNL     1     -13.710   5.057 -12.922  1.00  0.00     0.056 C 
ATOM     44  G   UNL     1     -13.683   7.300 -11.704  1.00  0.00     0.000 G0
ENDBRANCH  41  42
ENDBRANCH  39  41
ENDBRANCH  35  39
ENDBRANCH  33  35
ENDBRANCH  23  31
ENDBRANCH  21  23
ENDBRANCH  19  21
ENDBRANCH  14  19
ENDBRANCH   7  14
ENDBRANCH   2   5
BRANCH   3  45
ATOM     45  C   UNL     1      -5.980  -4.362  -1.029  1.00  0.00     0.171 C 
BRANCH  45  46
ATOM     46  N   UNL     1      -5.427  -5.662  -1.388  1.00  0.00    -0.342 N 
ATOM     47  C   UNL     1      -4.588  -6.360  -0.556  1.00  0.00     0.247 C 
ATOM     48  O   UNL     1      -4.301  -5.977   0.579  1.00  0.00    -0.273 OA
ATOM     49  H   UNL     1      -5.686  -6.043  -2.296  1.00  0.00     0.164 HD
BRANCH  47  50
ATOM     50  C   UNL     1      -4.007  -7.650  -1.152  1.00  0.00     0.212 CG0
ATOM     51  G   UNL     1      -4.480  -8.826  -0.274  1.00  0.00     0.000 G0
BRANCH  50  52
ATOM     52  N   UNL     1      -4.516  -7.710  -2.520  1.00  0.00    -0.339 N 
ATOM     53  C   UNL     1      -3.746  -7.438  -3.625  1.00  0.00     0.243 C 
ATOM     54  O   UNL     1      -2.578  -7.069  -3.544  1.00  0.00    -0.273 OA
ATOM     55  H   UNL     1      -5.507  -7.902  -2.648  1.00  0.00     0.164 HD
BRANCH  53  56
ATOM     56  C   UNL     1      -4.523  -7.482  -4.957  1.00  0.00     0.182 C 
BRANCH  56  57
ATOM     57  N   UNL     1      -5.851  -8.075  -4.772  1.00  0.00    -0.344 N 
ATOM     58  C   UNL     1      -6.938  -7.336  -4.372  1.00  0.00     0.220 C 
ATOM     59  O   UNL     1      -6.859  -6.150  -4.072  1.00  0.00    -0.275 OA
ATOM     60  H   UNL     1      -5.982  -9.026  -5.106  1.00  0.00     0.164 HD
BRANCH  58  61
ATOM     61  C   UNL     1      -8.222  -8.142  -4.304  1.00  0.00     0.100 C 
BRANCH  61  62
ATOM     62  C   UNL     1      -8.099  -9.547  -4.896  1.00  0.00     0.010 C 
BRANCH  62  63
ATOM     63  C   UNL     1      -8.806  -9.723  -6.246  1.00  0.00     0.000 C 
BRANCH  63  64
ATOM     64  C   UNL     1     -10.297  -9.394  -6.220  1.00  0.00    -0.003 C 
ATOM     65  C   UNL     1     -11.091 -10.350  -7.099  1.00  0.00     0.004 C 
ENDBRANCH  63  64
ENDBRANCH  62  63
ENDBRANCH  61  62
ENDBRANCH  58  61
ENDBRANCH  56  57
BRANCH  56  66
ATOM     66  C   UNL     1      -3.723  -8.190  -6.049  1.00  0.00     0.157 C 
BRANCH  66  67
ATOM     67  C   UNL     1      -4.547  -9.243  -6.731  1.00  0.00     0.305 C 
ATOM     68  O   UNL     1      -5.329  -9.078  -7.654  1.00  0.00    -0.252 OA
BRANCH  67  69
ATOM     69  O   UNL     1      -4.304 -10.476  -6.246  1.00  0.00    -0.481 OA
ATOM     70  H   UNL     1      -3.795 -10.325  -5.422  1.00  0.00     0.296 HD
ENDBRANCH  67  69
ENDBRANCH  66  67
ENDBRANCH  56  66
ENDBRANCH  53  56
ENDBRANCH  50  52
ENDBRANCH  47  50
ENDBRANCH  45  46
BRANCH  45  71
ATOM     71  C   UNL     1      -7.512  -4.384  -1.014  1.00  0.00     0.037 C 
BRANCH  71  72
ATOM     72  C   UNL     1      -8.065  -5.778  -0.709  1.00  0.00     0.026 C 
BRANCH  72  73
ATOM     73  C   UNL     1      -8.808  -5.807   0.625  1.00  0.00     0.146 C 
BRANCH  73  74
ATOM     74  N   UNL     1      -8.111  -6.740   1.505  1.00  0.00    -0.254 NA
ATOM     75  C   UNL     1      -7.216  -6.267   2.291  1.00  0.00     0.185 C 
ATOM     76  N   UNL     1      -6.558  -7.101   3.113  1.00  0.00    -0.370 N 
ATOM     77  N   UNL     1      -6.804  -4.996   2.435  1.00  0.00    -0.370 N 
ATOM     78  H   UNL     1      -6.802  -8.080   3.064  1.00  0.00     0.159 HD
ATOM     79  H   UNL     1      -5.751  -6.830   3.647  1.00  0.00     0.159 HD
ATOM     80  H   UNL     1      -7.214  -4.257   1.883  1.00  0.00     0.159 HD
ATOM     81  H   UNL     1      -6.171  -4.725   3.170  1.00  0.00     0.159 HD
ENDBRANCH  73  74
ENDBRANCH  72  73
ENDBRANCH  71  72
ENDBRANCH  45  71
ENDBRANCH   3  45
TORSDOF 20
ENDMDL
MODEL 35
REMARK VINA RESULT:    -5.857     14.161     19.648
REMARK INTER + INTRA:         -22.525
REMARK INTER:                 -16.483
REMARK INTRA:                  -6.042
REMARK UNBOUND:                -5.711
REMARK SMILES CCCCCC(=O)N[C@H](CC(=O)O)C(=O)N[C@H]1C(=O)N[C@H](CCCN=C(N)N)C(=O)N[C@@H]2CC[C@H](O)N(C2=O)[C@@H](CC(C)C)C(=O)N(C)[C@@H](Cc2ccccc2)C(=O)N[C@H](C(C)C)C(=O)O[C@@H]1C
REMARK SMILES IDX 30 1 31 2 29 3 32 5 35 6 37 7 34 8 38 9 33 10 39 11 36 12
REMARK SMILES IDX 40 14 41 15 42 16 43 17 44 18 45 19 46 20 47 21 48 22 49 23
REMARK SMILES IDX 50 24 51 25 52 26 56 27 53 28 55 29 54 30 57 31 58 32 59 33
REMARK SMILES IDX 60 35 61 36 62 37 63 38 64 39 65 40 66 41 67 42 68 43 21 45
REMARK SMILES IDX 20 46 18 47 19 48 17 50 16 52 14 53 15 54 9 56 8 57 6 58
REMARK SMILES IDX 7 59 5 61 4 62 3 63 2 64 1 65 10 66 11 67 12 68 13 69 22 71
REMARK SMILES IDX 23 72 24 73 25 74 26 75 27 76 28 77
REMARK H PARENT 31 4 36 13 59 34 20 49 16 55 8 60 13 70 27 78 27 79 28 80
REMARK H PARENT 28 81
REMARK Flexibility Score:  259.900
ROOT
ATOM      1  O   UNL     1      -5.432  -3.302  -1.165  1.00  0.00    -0.273 OA
ATOM      2  N   UNL     1      -3.713  -2.489  -2.437  1.00  0.00    -0.343 N 
ATOM      3  C   UNL     1      -4.494  -2.516  -1.302  1.00  0.00     0.243 C 
ATOM      4  H   UNL     1      -2.941  -1.838  -2.508  1.00  0.00     0.164 HD
ENDROOT
BRANCH   2   5
ATOM      5  C   UNL     1      -4.046  -3.323  -3.587  1.00  0.00     0.171 C 
ATOM      6  C   UNL     1      -5.910  -5.515  -3.949  1.00  0.00     0.214 C 
ATOM      7  N   UNL     1      -4.550  -5.797  -3.550  1.00  0.00    -0.303 N 
ATOM      8  C   UNL     1      -6.039  -4.261  -4.800  1.00  0.00     0.057 C 
ATOM      9  C   UNL     1      -3.624  -4.795  -3.311  1.00  0.00     0.247 C 
ATOM     10  C   UNL     1      -5.481  -3.072  -4.049  1.00  0.00     0.040 C 
ATOM     11  O   UNL     1      -2.487  -5.040  -2.886  1.00  0.00    -0.272 OA
BRANCH   6  12
ATOM     12  O   UNL     1      -6.686  -5.398  -2.780  1.00  0.00    -0.373 OA
ATOM     13  H   UNL     1      -7.138  -6.259  -2.648  1.00  0.00     0.213 HD
ENDBRANCH   6  12
BRANCH   7  14
ATOM     14  C   UNL     1      -4.216  -7.207  -3.260  1.00  0.00     0.177 C 
BRANCH  14  15
ATOM     15  C   UNL     1      -2.951  -7.739  -3.961  1.00  0.00     0.038 C 
BRANCH  15  16
ATOM     16  C   UNL     1      -2.868  -7.715  -5.504  1.00  0.00    -0.015 C 
ATOM     17  C   UNL     1      -3.738  -8.796  -6.152  1.00  0.00     0.007 C 
ATOM     18  C   UNL     1      -1.417  -7.936  -5.949  1.00  0.00     0.007 C 
ENDBRANCH  15  16
ENDBRANCH  14  15
BRANCH  14  19
ATOM     19  C   UNL     1      -4.679  -7.589  -1.812  1.00  0.00     0.245 C 
ATOM     20  O   UNL     1      -4.314  -6.838  -0.892  1.00  0.00    -0.272 OA
BRANCH  19  21
ATOM     21  N   UNL     1      -5.360  -8.752  -1.502  1.00  0.00    -0.332 N 
ATOM     22  C   UNL     1      -4.757 -10.063  -1.337  1.00  0.00     0.147 C 
BRANCH  21  23
ATOM     23  C   UNL     1      -6.836  -8.670  -1.330  1.00  0.00     0.178 C 
BRANCH  23  24
ATOM     24  C   UNL     1      -7.607  -9.940  -1.746  1.00  0.00     0.070 C 
BRANCH  24  25
ATOM     25  C   UNL     1      -8.327  -9.904  -3.074  1.00  0.00    -0.045 A 
ATOM     26  C   UNL     1      -7.905  -9.044  -4.096  1.00  0.00     0.004 A 
ATOM     27  C   UNL     1      -9.437 -10.732  -3.299  1.00  0.00     0.004 A 
ATOM     28  C   UNL     1      -8.587  -9.004  -5.314  1.00  0.00     0.000 A 
ATOM     29  C   UNL     1     -10.116 -10.692  -4.518  1.00  0.00     0.000 A 
ATOM     30  C   UNL     1      -9.692  -9.826  -5.524  1.00  0.00     0.000 A 
ENDBRANCH  24  25
ENDBRANCH  23  24
BRANCH  23  31
ATOM     31  C   UNL     1      -7.253  -8.073   0.035  1.00  0.00     0.243 C 
ATOM     32  O   UNL     1      -7.731  -8.731   0.956  1.00  0.00    -0.273 OA
ATOM     33  N   UNL     1      -7.213  -6.689   0.070  1.00  0.00    -0.341 N 
ATOM     34  H   UNL     1      -6.809  -6.196  -0.730  1.00  0.00     0.164 HD
BRANCH  33  35
ATOM     35  C   UNL     1      -7.676  -5.905   1.218  1.00  0.00     0.194 C 
BRANCH  35  36
ATOM     36  C   UNL     1      -9.049  -5.208   0.998  1.00  0.00     0.017 C 
ATOM     37  C   UNL     1     -10.214  -6.127   1.406  1.00  0.00     0.010 C 
ATOM     38  C   UNL     1      -9.286  -4.784  -0.456  1.00  0.00     0.010 C 
ENDBRANCH  35  36
BRANCH  35  39
ATOM     39  C   UNL     1      -6.599  -4.913   1.738  1.00  0.00     0.329 C 
ATOM     40  O   UNL     1      -5.420  -5.205   1.901  1.00  0.00    -0.250 OA
BRANCH  39  41
ATOM     41  O   UNL     1      -7.095  -3.651   1.912  1.00  0.00    -0.458 OA
BRANCH  41  42
ATOM     42  C   UNL     1      -6.743  -2.989   3.151  1.00  0.00     0.205 CG0
ATOM     43  C   UNL     1      -7.939  -3.121   4.092  1.00  0.00     0.056 C 
ATOM     44  G   UNL     1      -6.396  -1.519   2.842  1.00  0.00     0.000 G0
ENDBRANCH  41  42
ENDBRANCH  39  41
ENDBRANCH  35  39
ENDBRANCH  33  35
ENDBRANCH  23  31
ENDBRANCH  21  23
ENDBRANCH  19  21
ENDBRANCH  14  19
ENDBRANCH   7  14
ENDBRANCH   2   5
BRANCH   3  45
ATOM     45  C   UNL     1      -4.100  -1.512  -0.210  1.00  0.00     0.171 C 
BRANCH  45  46
ATOM     46  N   UNL     1      -5.240  -1.446   0.695  1.00  0.00    -0.342 N 
ATOM     47  C   UNL     1      -5.097  -1.447   2.060  1.00  0.00     0.247 C 
ATOM     48  O   UNL     1      -3.999  -1.429   2.617  1.00  0.00    -0.273 OA
ATOM     49  H   UNL     1      -6.166  -1.403   0.275  1.00  0.00     0.164 HD
BRANCH  47  50
ATOM     50  C   UNL     1      -6.412  -1.500   2.851  1.00  0.00     0.212 CG0
ATOM     51  G   UNL     1      -6.728  -2.983   3.133  1.00  0.00     0.000 G0
BRANCH  50  52
ATOM     52  N   UNL     1      -6.170  -0.721   4.062  1.00  0.00    -0.339 N 
ATOM     53  C   UNL     1      -6.465   0.616   4.171  1.00  0.00     0.243 C 
ATOM     54  O   UNL     1      -6.909   1.275   3.235  1.00  0.00    -0.273 OA
ATOM     55  H   UNL     1      -5.700  -1.185   4.837  1.00  0.00     0.164 HD
BRANCH  53  56
ATOM     56  C   UNL     1      -6.041   1.245   5.514  1.00  0.00     0.182 C 
BRANCH  56  57
ATOM     57  N   UNL     1      -4.582   1.233   5.664  1.00  0.00    -0.344 N 
ATOM     58  C   UNL     1      -3.876   2.335   6.078  1.00  0.00     0.220 C 
ATOM     59  O   UNL     1      -4.403   3.424   6.279  1.00  0.00    -0.275 OA
ATOM     60  H   UNL     1      -4.121   0.329   5.606  1.00  0.00     0.164 HD
BRANCH  58  61
ATOM     61  C   UNL     1      -2.387   2.078   6.218  1.00  0.00     0.100 C 
BRANCH  61  62
ATOM     62  C   UNL     1      -1.999   0.607   6.069  1.00  0.00     0.010 C 
BRANCH  62  63
ATOM     63  C   UNL     1      -1.659   0.190   4.633  1.00  0.00     0.000 C 
BRANCH  63  64
ATOM     64  C   UNL     1      -0.197   0.407   4.246  1.00  0.00    -0.003 C 
ATOM     65  C   UNL     1       0.727  -0.513   5.031  1.00  0.00     0.004 C 
ENDBRANCH  63  64
ENDBRANCH  62  63
ENDBRANCH  61  62
ENDBRANCH  58  61
ENDBRANCH  56  57
BRANCH  56  66
ATOM     66  C   UNL     1      -6.747   0.576   6.693  1.00  0.00     0.157 C 
BRANCH  66  67
ATOM     67  C   UNL     1      -5.839  -0.396   7.391  1.00  0.00     0.305 C 
ATOM     68  O   UNL     1      -5.557  -1.526   7.025  1.00  0.00    -0.252 OA
BRANCH  67  69
ATOM     69  O   UNL     1      -5.284   0.128   8.500  1.00  0.00    -0.481 OA
ATOM     70  H   UNL     1      -4.954  -0.645   9.004  1.00  0.00     0.296 HD
ENDBRANCH  67  69
ENDBRANCH  66  67
ENDBRANCH  56  66
ENDBRANCH  53  56
ENDBRANCH  50  52
ENDBRANCH  47  50
ENDBRANCH  45  46
BRANCH  45  71
ATOM     71  C   UNL     1      -3.790  -0.144  -0.829  1.00  0.00     0.037 C 
BRANCH  71  72
ATOM     72  C   UNL     1      -2.294   0.043  -1.094  1.00  0.00     0.026 C 
BRANCH  72  73
ATOM     73  C   UNL     1      -2.044   0.730  -2.435  1.00  0.00     0.146 C 
BRANCH  73  74
ATOM     74  N   UNL     1      -1.972  -0.306  -3.461  1.00  0.00    -0.254 NA
ATOM     75  C   UNL     1      -0.812  -0.731  -3.801  1.00  0.00     0.185 C 
ATOM     76  N   UNL     1      -0.713  -1.685  -4.742  1.00  0.00    -0.370 N 
ATOM     77  N   UNL     1       0.395  -0.356  -3.341  1.00  0.00    -0.370 N 
ATOM     78  H   UNL     1      -1.575  -2.019  -5.147  1.00  0.00     0.159 HD
ATOM     79  H   UNL     1       0.158  -1.962  -5.160  1.00  0.00     0.159 HD
ATOM     80  H   UNL     1       0.475   0.351  -2.627  1.00  0.00     0.159 HD
ATOM     81  H   UNL     1       1.235  -0.845  -3.602  1.00  0.00     0.159 HD
ENDBRANCH  73  74
ENDBRANCH  72  73
ENDBRANCH  71  72
ENDBRANCH  45  71
ENDBRANCH   3  45
TORSDOF 20
ENDMDL
MODEL 36
REMARK VINA RESULT:    -5.850     12.099     18.022
REMARK INTER + INTRA:         -22.504
REMARK INTER:                 -15.439
REMARK INTRA:                  -7.065
REMARK UNBOUND:                -5.711
REMARK SMILES CCCCCC(=O)N[C@H](CC(=O)O)C(=O)N[C@H]1C(=O)N[C@H](CCCN=C(N)N)C(=O)N[C@@H]2CC[C@H](O)N(C2=O)[C@@H](CC(C)C)C(=O)N(C)[C@@H](Cc2ccccc2)C(=O)N[C@H](C(C)C)C(=O)O[C@@H]1C
REMARK SMILES IDX 30 1 31 2 29 3 32 5 35 6 37 7 34 8 38 9 33 10 39 11 36 12
REMARK SMILES IDX 40 14 41 15 42 16 43 17 44 18 45 19 46 20 47 21 48 22 49 23
REMARK SMILES IDX 50 24 51 25 52 26 56 27 53 28 55 29 54 30 57 31 58 32 59 33
REMARK SMILES IDX 60 35 61 36 62 37 63 38 64 39 65 40 66 41 67 42 68 43 21 45
REMARK SMILES IDX 20 46 18 47 19 48 17 50 16 52 14 53 15 54 9 56 8 57 6 58
REMARK SMILES IDX 7 59 5 61 4 62 3 63 2 64 1 65 10 66 11 67 12 68 13 69 22 71
REMARK SMILES IDX 23 72 24 73 25 74 26 75 27 76 28 77
REMARK H PARENT 31 4 36 13 59 34 20 49 16 55 8 60 13 70 27 78 27 79 28 80
REMARK H PARENT 28 81
REMARK Flexibility Score:  259.900
ROOT
ATOM      1  O   UNL     1      -2.195  -3.647  -5.064  1.00  0.00    -0.273 OA
ATOM      2  N   UNL     1      -3.429  -2.999  -3.250  1.00  0.00    -0.343 N 
ATOM      3  C   UNL     1      -2.594  -3.867  -3.920  1.00  0.00     0.243 C 
ATOM      4  H   UNL     1      -3.725  -3.206  -2.304  1.00  0.00     0.164 HD
ENDROOT
BRANCH   2   5
ATOM      5  C   UNL     1      -3.976  -1.827  -3.925  1.00  0.00     0.171 C 
ATOM      6  C   UNL     1      -5.147   0.637  -2.943  1.00  0.00     0.214 C 
ATOM      7  N   UNL     1      -6.000  -0.496  -3.215  1.00  0.00    -0.303 N 
ATOM      8  C   UNL     1      -3.910   0.685  -3.827  1.00  0.00     0.057 C 
ATOM      9  C   UNL     1      -5.501  -1.717  -3.638  1.00  0.00     0.247 C 
ATOM     10  C   UNL     1      -3.115  -0.592  -3.665  1.00  0.00     0.040 C 
ATOM     11  O   UNL     1      -6.229  -2.708  -3.786  1.00  0.00    -0.272 OA
BRANCH   6  12
ATOM     12  O   UNL     1      -4.779   0.582  -1.584  1.00  0.00    -0.373 OA
ATOM     13  H   UNL     1      -5.592   0.381  -1.074  1.00  0.00     0.213 HD
ENDBRANCH   6  12
BRANCH   7  14
ATOM     14  C   UNL     1      -7.434  -0.350  -2.884  1.00  0.00     0.177 C 
BRANCH  14  15
ATOM     15  C   UNL     1      -7.811  -0.706  -1.433  1.00  0.00     0.038 C 
BRANCH  15  16
ATOM     16  C   UNL     1      -9.143  -1.435  -1.150  1.00  0.00    -0.015 C 
ATOM     17  C   UNL     1      -9.288  -1.836   0.321  1.00  0.00     0.007 C 
ATOM     18  C   UNL     1      -9.230  -2.706  -2.005  1.00  0.00     0.007 C 
ENDBRANCH  15  16
ENDBRANCH  14  15
BRANCH  14  19
ATOM     19  C   UNL     1      -8.073   0.805  -3.730  1.00  0.00     0.245 C 
ATOM     20  O   UNL     1      -8.011   0.693  -4.966  1.00  0.00    -0.272 OA
BRANCH  19  21
ATOM     21  N   UNL     1      -8.587   1.967  -3.184  1.00  0.00    -0.332 N 
ATOM     22  C   UNL     1      -9.779   2.055  -2.358  1.00  0.00     0.147 C 
BRANCH  21  23
ATOM     23  C   UNL     1      -7.876   3.244  -3.468  1.00  0.00     0.178 C 
BRANCH  23  24
ATOM     24  C   UNL     1      -8.667   4.246  -4.333  1.00  0.00     0.070 C 
BRANCH  24  25
ATOM     25  C   UNL     1      -8.021   4.705  -5.619  1.00  0.00    -0.045 A 
ATOM     26  C   UNL     1      -6.792   4.176  -6.034  1.00  0.00     0.004 A 
ATOM     27  C   UNL     1      -8.644   5.675  -6.418  1.00  0.00     0.004 A 
ATOM     28  C   UNL     1      -6.193   4.618  -7.215  1.00  0.00     0.000 A 
ATOM     29  C   UNL     1      -8.045   6.115  -7.599  1.00  0.00     0.000 A 
ATOM     30  C   UNL     1      -6.818   5.588  -7.995  1.00  0.00     0.000 A 
ENDBRANCH  24  25
ENDBRANCH  23  24
BRANCH  23  31
ATOM     31  C   UNL     1      -7.206   3.854  -2.213  1.00  0.00     0.243 C 
ATOM     32  O   UNL     1      -6.583   3.200  -1.380  1.00  0.00    -0.273 OA
ATOM     33  N   UNL     1      -7.528   5.185  -2.006  1.00  0.00    -0.341 N 
ATOM     34  H   UNL     1      -8.055   5.675  -2.733  1.00  0.00     0.164 HD
BRANCH  33  35
ATOM     35  C   UNL     1      -7.105   5.934  -0.820  1.00  0.00     0.194 C 
BRANCH  35  36
ATOM     36  C   UNL     1      -8.233   6.152   0.229  1.00  0.00     0.017 C 
ATOM     37  C   UNL     1      -7.960   5.355   1.516  1.00  0.00     0.010 C 
ATOM     38  C   UNL     1      -9.619   5.741  -0.281  1.00  0.00     0.010 C 
ENDBRANCH  35  36
BRANCH  35  39
ATOM     39  C   UNL     1      -6.381   7.262  -1.178  1.00  0.00     0.329 C 
ATOM     40  O   UNL     1      -5.349   7.325  -1.834  1.00  0.00    -0.250 OA
BRANCH  39  41
ATOM     41  O   UNL     1      -7.073   8.362  -0.752  1.00  0.00    -0.458 OA
BRANCH  41  42
ATOM     42  C   UNL     1      -6.280   9.455  -0.229  1.00  0.00     0.205 CG0
ATOM     43  C   UNL     1      -5.961   9.127   1.228  1.00  0.00     0.056 C 
ATOM     44  G   UNL     1      -7.085  10.761  -0.377  1.00  0.00     0.000 G0
ENDBRANCH  41  42
ENDBRANCH  39  41
ENDBRANCH  35  39
ENDBRANCH  33  35
ENDBRANCH  23  31
ENDBRANCH  21  23
ENDBRANCH  19  21
ENDBRANCH  14  19
ENDBRANCH   7  14
ENDBRANCH   2   5
BRANCH   3  45
ATOM     45  C   UNL     1      -2.177  -5.116  -3.132  1.00  0.00     0.171 C 
BRANCH  45  46
ATOM     46  N   UNL     1      -2.717  -6.248  -3.874  1.00  0.00    -0.342 N 
ATOM     47  C   UNL     1      -1.952  -6.999  -4.731  1.00  0.00     0.247 C 
ATOM     48  O   UNL     1      -0.743  -6.819  -4.879  1.00  0.00    -0.273 OA
ATOM     49  H   UNL     1      -3.702  -6.467  -3.738  1.00  0.00     0.164 HD
BRANCH  47  50
ATOM     50  C   UNL     1      -2.720  -8.070  -5.519  1.00  0.00     0.212 CG0
ATOM     51  G   UNL     1      -1.741  -9.224  -5.815  1.00  0.00     0.000 G0
BRANCH  50  52
ATOM     52  N   UNL     1      -3.832  -8.464  -4.658  1.00  0.00    -0.339 N 
ATOM     53  C   UNL     1      -4.818  -9.337  -5.049  1.00  0.00     0.243 C 
ATOM     54  O   UNL     1      -4.868  -9.815  -6.179  1.00  0.00    -0.273 OA
ATOM     55  H   UNL     1      -3.907  -8.015  -3.747  1.00  0.00     0.164 HD
BRANCH  53  56
ATOM     56  C   UNL     1      -5.933  -9.534  -4.003  1.00  0.00     0.182 C 
BRANCH  56  57
ATOM     57  N   UNL     1      -6.536  -8.251  -3.629  1.00  0.00    -0.344 N 
ATOM     58  C   UNL     1      -7.712  -7.802  -4.180  1.00  0.00     0.220 C 
ATOM     59  O   UNL     1      -8.299  -8.404  -5.072  1.00  0.00    -0.275 OA
ATOM     60  H   UNL     1      -6.139  -7.772  -2.825  1.00  0.00     0.164 HD
BRANCH  58  61
ATOM     61  C   UNL     1      -8.180  -6.478  -3.602  1.00  0.00     0.100 C 
BRANCH  61  62
ATOM     62  C   UNL     1      -9.697  -6.378  -3.441  1.00  0.00     0.010 C 
BRANCH  62  63
ATOM     63  C   UNL     1     -10.176  -6.405  -1.985  1.00  0.00     0.000 C 
BRANCH  63  64
ATOM     64  C   UNL     1      -9.638  -7.580  -1.169  1.00  0.00    -0.003 C 
ATOM     65  C   UNL     1     -10.244  -8.898  -1.628  1.00  0.00     0.004 C 
ENDBRANCH  63  64
ENDBRANCH  62  63
ENDBRANCH  61  62
ENDBRANCH  58  61
ENDBRANCH  56  57
BRANCH  56  66
ATOM     66  C   UNL     1      -5.431 -10.311  -2.788  1.00  0.00     0.157 C 
BRANCH  66  67
ATOM     67  C   UNL     1      -6.520 -10.494  -1.770  1.00  0.00     0.305 C 
ATOM     68  O   UNL     1      -6.773  -9.760  -0.827  1.00  0.00    -0.252 OA
BRANCH  67  69
ATOM     69  O   UNL     1      -7.279 -11.577  -2.023  1.00  0.00    -0.481 OA
ATOM     70  H   UNL     1      -6.786 -12.326  -1.626  1.00  0.00     0.296 HD
ENDBRANCH  67  69
ENDBRANCH  66  67
ENDBRANCH  56  66
ENDBRANCH  53  56
ENDBRANCH  50  52
ENDBRANCH  47  50
ENDBRANCH  45  46
BRANCH  45  71
ATOM     71  C   UNL     1      -2.734  -5.058  -1.705  1.00  0.00     0.037 C 
BRANCH  71  72
ATOM     72  C   UNL     1      -3.960  -5.958  -1.529  1.00  0.00     0.026 C 
BRANCH  72  73
ATOM     73  C   UNL     1      -5.088  -5.231  -0.801  1.00  0.00     0.146 C 
BRANCH  73  74
ATOM     74  N   UNL     1      -4.770  -3.806  -0.793  1.00  0.00    -0.254 NA
ATOM     75  C   UNL     1      -5.163  -3.110   0.209  1.00  0.00     0.185 C 
ATOM     76  N   UNL     1      -4.884  -1.797   0.245  1.00  0.00    -0.370 N 
ATOM     77  N   UNL     1      -5.850  -3.505   1.295  1.00  0.00    -0.370 N 
ATOM     78  H   UNL     1      -4.375  -1.415  -0.539  1.00  0.00     0.159 HD
ATOM     79  H   UNL     1      -5.280  -1.165   0.919  1.00  0.00     0.159 HD
ATOM     80  H   UNL     1      -6.125  -4.469   1.406  1.00  0.00     0.159 HD
ATOM     81  H   UNL     1      -6.003  -2.889   2.076  1.00  0.00     0.159 HD
ENDBRANCH  73  74
ENDBRANCH  72  73
ENDBRANCH  71  72
ENDBRANCH  45  71
ENDBRANCH   3  45
TORSDOF 20
ENDMDL
MODEL 37
REMARK VINA RESULT:    -5.833     10.814     16.528
REMARK INTER + INTRA:         -22.457
REMARK INTER:                 -17.687
REMARK INTRA:                  -4.769
REMARK UNBOUND:                -5.711
REMARK SMILES CCCCCC(=O)N[C@H](CC(=O)O)C(=O)N[C@H]1C(=O)N[C@H](CCCN=C(N)N)C(=O)N[C@@H]2CC[C@H](O)N(C2=O)[C@@H](CC(C)C)C(=O)N(C)[C@@H](Cc2ccccc2)C(=O)N[C@H](C(C)C)C(=O)O[C@@H]1C
REMARK SMILES IDX 30 1 31 2 29 3 32 5 35 6 37 7 34 8 38 9 33 10 39 11 36 12
REMARK SMILES IDX 40 14 41 15 42 16 43 17 44 18 45 19 46 20 47 21 48 22 49 23
REMARK SMILES IDX 50 24 51 25 52 26 56 27 53 28 55 29 54 30 57 31 58 32 59 33
REMARK SMILES IDX 60 35 61 36 62 37 63 38 64 39 65 40 66 41 67 42 68 43 21 45
REMARK SMILES IDX 20 46 18 47 19 48 17 50 16 52 14 53 15 54 9 56 8 57 6 58
REMARK SMILES IDX 7 59 5 61 4 62 3 63 2 64 1 65 10 66 11 67 12 68 13 69 22 71
REMARK SMILES IDX 23 72 24 73 25 74 26 75 27 76 28 77
REMARK H PARENT 31 4 36 13 59 34 20 49 16 55 8 60 13 70 27 78 27 79 28 80
REMARK H PARENT 28 81
REMARK Flexibility Score:  259.900
ROOT
ATOM      1  O   UNL     1      -8.496   3.886  -2.898  1.00  0.00    -0.273 OA
ATOM      2  N   UNL     1      -6.491   2.862  -3.300  1.00  0.00    -0.343 N 
ATOM      3  C   UNL     1      -7.453   3.818  -3.549  1.00  0.00     0.243 C 
ATOM      4  H   UNL     1      -5.639   2.845  -3.847  1.00  0.00     0.164 HD
ENDROOT
BRANCH   2   5
ATOM      5  C   UNL     1      -6.727   1.808  -2.321  1.00  0.00     0.171 C 
ATOM      6  C   UNL     1      -4.942   0.113  -0.789  1.00  0.00     0.214 C 
ATOM      7  N   UNL     1      -5.417  -0.336  -2.077  1.00  0.00    -0.303 N 
ATOM      8  C   UNL     1      -5.924   1.025  -0.070  1.00  0.00     0.057 C 
ATOM      9  C   UNL     1      -6.230   0.445  -2.882  1.00  0.00     0.247 C 
ATOM     10  C   UNL     1      -6.236   2.226  -0.936  1.00  0.00     0.040 C 
ATOM     11  O   UNL     1      -6.562   0.090  -4.021  1.00  0.00    -0.272 OA
BRANCH   6  12
ATOM     12  O   UNL     1      -3.713   0.774  -0.990  1.00  0.00    -0.373 OA
ATOM     13  H   UNL     1      -3.809   1.677  -0.619  1.00  0.00     0.213 HD
ENDBRANCH   6  12
BRANCH   7  14
ATOM     14  C   UNL     1      -4.879  -1.617  -2.580  1.00  0.00     0.177 C 
BRANCH  14  15
ATOM     15  C   UNL     1      -3.657  -1.496  -3.511  1.00  0.00     0.038 C 
BRANCH  15  16
ATOM     16  C   UNL     1      -2.339  -2.209  -3.135  1.00  0.00    -0.015 C 
ATOM     17  C   UNL     1      -1.338  -1.268  -2.458  1.00  0.00     0.007 C 
ATOM     18  C   UNL     1      -1.681  -2.783  -4.396  1.00  0.00     0.007 C 
ENDBRANCH  15  16
ENDBRANCH  14  15
BRANCH  14  19
ATOM     19  C   UNL     1      -5.105  -2.754  -1.525  1.00  0.00     0.245 C 
ATOM     20  O   UNL     1      -4.310  -2.797  -0.570  1.00  0.00    -0.272 OA
BRANCH  19  21
ATOM     21  N   UNL     1      -6.051  -3.754  -1.659  1.00  0.00    -0.332 N 
ATOM     22  C   UNL     1      -7.456  -3.638  -1.309  1.00  0.00     0.147 C 
BRANCH  21  23
ATOM     23  C   UNL     1      -5.603  -5.069  -2.196  1.00  0.00     0.178 C 
BRANCH  23  24
ATOM     24  C   UNL     1      -4.286  -5.023  -2.998  1.00  0.00     0.070 C 
BRANCH  24  25
ATOM     25  C   UNL     1      -4.039  -6.146  -3.979  1.00  0.00    -0.045 A 
ATOM     26  C   UNL     1      -5.035  -6.544  -4.879  1.00  0.00     0.004 A 
ATOM     27  C   UNL     1      -2.803  -6.809  -3.998  1.00  0.00     0.004 A 
ATOM     28  C   UNL     1      -4.805  -7.594  -5.771  1.00  0.00     0.000 A 
ATOM     29  C   UNL     1      -2.574  -7.857  -4.891  1.00  0.00     0.000 A 
ATOM     30  C   UNL     1      -3.576  -8.250  -5.775  1.00  0.00     0.000 A 
ENDBRANCH  24  25
ENDBRANCH  23  24
BRANCH  23  31
ATOM     31  C   UNL     1      -5.692  -6.209  -1.153  1.00  0.00     0.243 C 
ATOM     32  O   UNL     1      -5.166  -6.168  -0.044  1.00  0.00    -0.273 OA
ATOM     33  N   UNL     1      -6.266  -7.367  -1.649  1.00  0.00    -0.341 N 
ATOM     34  H   UNL     1      -6.683  -7.342  -2.582  1.00  0.00     0.164 HD
BRANCH  33  35
ATOM     35  C   UNL     1      -6.347  -8.611  -0.878  1.00  0.00     0.194 C 
BRANCH  35  36
ATOM     36  C   UNL     1      -5.373  -9.723  -1.362  1.00  0.00     0.017 C 
ATOM     37  C   UNL     1      -3.912  -9.364  -1.041  1.00  0.00     0.010 C 
ATOM     38  C   UNL     1      -5.461  -9.988  -2.869  1.00  0.00     0.010 C 
ENDBRANCH  35  36
BRANCH  35  39
ATOM     39  C   UNL     1      -7.804  -9.136  -0.741  1.00  0.00     0.329 C 
ATOM     40  O   UNL     1      -8.794  -8.515  -1.109  1.00  0.00    -0.250 OA
BRANCH  39  41
ATOM     41  O   UNL     1      -7.854 -10.408  -0.242  1.00  0.00    -0.458 OA
BRANCH  41  42
ATOM     42  C   UNL     1      -9.079 -11.141  -0.477  1.00  0.00     0.205 CG0
ATOM     43  C   UNL     1      -9.829 -11.212   0.852  1.00  0.00     0.056 C 
ATOM     44  G   UNL     1      -8.720 -12.536  -1.027  1.00  0.00     0.000 G0
ENDBRANCH  41  42
ENDBRANCH  39  41
ENDBRANCH  35  39
ENDBRANCH  33  35
ENDBRANCH  23  31
ENDBRANCH  21  23
ENDBRANCH  19  21
ENDBRANCH  14  19
ENDBRANCH   7  14
ENDBRANCH   2   5
BRANCH   3  45
ATOM     45  C   UNL     1      -7.125   4.802  -4.679  1.00  0.00     0.171 C 
BRANCH  45  46
ATOM     46  N   UNL     1      -6.384   5.888  -4.052  1.00  0.00    -0.342 N 
ATOM     47  C   UNL     1      -5.015   5.882  -3.948  1.00  0.00     0.247 C 
ATOM     48  O   UNL     1      -4.312   4.998  -4.439  1.00  0.00    -0.273 OA
ATOM     49  H   UNL     1      -6.924   6.668  -3.681  1.00  0.00     0.164 HD
BRANCH  47  50
ATOM     50  C   UNL     1      -4.418   7.047  -3.147  1.00  0.00     0.212 CG0
ATOM     51  G   UNL     1      -4.003   8.141  -4.152  1.00  0.00     0.000 G0
BRANCH  50  52
ATOM     52  N   UNL     1      -5.475   7.474  -2.234  1.00  0.00    -0.339 N 
ATOM     53  C   UNL     1      -5.784   8.792  -1.999  1.00  0.00     0.243 C 
ATOM     54  O   UNL     1      -5.156   9.719  -2.502  1.00  0.00    -0.273 OA
ATOM     55  H   UNL     1      -5.960   6.754  -1.701  1.00  0.00     0.164 HD
BRANCH  53  56
ATOM     56  C   UNL     1      -6.878   8.999  -0.931  1.00  0.00     0.182 C 
BRANCH  56  57
ATOM     57  N   UNL     1      -6.352   9.732   0.225  1.00  0.00    -0.344 N 
ATOM     58  C   UNL     1      -6.698  11.035   0.491  1.00  0.00     0.220 C 
ATOM     59  O   UNL     1      -7.409  11.697  -0.257  1.00  0.00    -0.275 OA
ATOM     60  H   UNL     1      -5.844   9.192   0.921  1.00  0.00     0.164 HD
BRANCH  58  61
ATOM     61  C   UNL     1      -6.082  11.572   1.769  1.00  0.00     0.100 C 
BRANCH  61  62
ATOM     62  C   UNL     1      -6.795  12.804   2.326  1.00  0.00     0.010 C 
BRANCH  62  63
ATOM     63  C   UNL     1      -5.930  14.071   2.355  1.00  0.00     0.000 C 
BRANCH  63  64
ATOM     64  C   UNL     1      -5.706  14.646   3.752  1.00  0.00    -0.003 C 
ATOM     65  C   UNL     1      -4.332  14.275   4.292  1.00  0.00     0.004 C 
ENDBRANCH  63  64
ENDBRANCH  62  63
ENDBRANCH  61  62
ENDBRANCH  58  61
ENDBRANCH  56  57
BRANCH  56  66
ATOM     66  C   UNL     1      -7.526   7.676  -0.529  1.00  0.00     0.157 C 
BRANCH  66  67
ATOM     67  C   UNL     1      -8.668   7.896   0.421  1.00  0.00     0.305 C 
ATOM     68  O   UNL     1      -9.857   7.928   0.142  1.00  0.00    -0.252 OA
BRANCH  67  69
ATOM     69  O   UNL     1      -8.256   8.015   1.697  1.00  0.00    -0.481 OA
ATOM     70  H   UNL     1      -7.709   7.218   1.859  1.00  0.00     0.296 HD
ENDBRANCH  67  69
ENDBRANCH  66  67
ENDBRANCH  56  66
ENDBRANCH  53  56
ENDBRANCH  50  52
ENDBRANCH  47  50
ENDBRANCH  45  46
BRANCH  45  71
ATOM     71  C   UNL     1      -8.414   5.305  -5.340  1.00  0.00     0.037 C 
BRANCH  71  72
ATOM     72  C   UNL     1      -8.854   4.409  -6.500  1.00  0.00     0.026 C 
BRANCH  72  73
ATOM     73  C   UNL     1      -9.843   5.124  -7.417  1.00  0.00     0.146 C 
BRANCH  73  74
ATOM     74  N   UNL     1      -9.332   6.469  -7.664  1.00  0.00    -0.254 NA
ATOM     75  C   UNL     1     -10.182   7.400  -7.895  1.00  0.00     0.185 C 
ATOM     76  N   UNL     1      -9.742   8.648  -8.125  1.00  0.00    -0.370 N 
ATOM     77  N   UNL     1     -11.523   7.326  -7.947  1.00  0.00    -0.370 N 
ATOM     78  H   UNL     1      -8.742   8.790  -8.111  1.00  0.00     0.159 HD
ATOM     79  H   UNL     1     -10.333   9.391  -8.453  1.00  0.00     0.159 HD
ATOM     80  H   UNL     1     -11.996   6.448  -7.789  1.00  0.00     0.159 HD
ATOM     81  H   UNL     1     -12.096   8.151  -8.023  1.00  0.00     0.159 HD
ENDBRANCH  73  74
ENDBRANCH  72  73
ENDBRANCH  71  72
ENDBRANCH  45  71
ENDBRANCH   3  45
TORSDOF 20
ENDMDL
MODEL 38
REMARK VINA RESULT:    -5.830      9.924     15.068
REMARK INTER + INTRA:         -22.446
REMARK INTER:                 -15.688
REMARK INTRA:                  -6.758
REMARK UNBOUND:                -5.711
REMARK SMILES CCCCCC(=O)N[C@H](CC(=O)O)C(=O)N[C@H]1C(=O)N[C@H](CCCN=C(N)N)C(=O)N[C@@H]2CC[C@H](O)N(C2=O)[C@@H](CC(C)C)C(=O)N(C)[C@@H](Cc2ccccc2)C(=O)N[C@H](C(C)C)C(=O)O[C@@H]1C
REMARK SMILES IDX 30 1 31 2 29 3 32 5 35 6 37 7 34 8 38 9 33 10 39 11 36 12
REMARK SMILES IDX 40 14 41 15 42 16 43 17 44 18 45 19 46 20 47 21 48 22 49 23
REMARK SMILES IDX 50 24 51 25 52 26 56 27 53 28 55 29 54 30 57 31 58 32 59 33
REMARK SMILES IDX 60 35 61 36 62 37 63 38 64 39 65 40 66 41 67 42 68 43 21 45
REMARK SMILES IDX 20 46 18 47 19 48 17 50 16 52 14 53 15 54 9 56 8 57 6 58
REMARK SMILES IDX 7 59 5 61 4 62 3 63 2 64 1 65 10 66 11 67 12 68 13 69 22 71
REMARK SMILES IDX 23 72 24 73 25 74 26 75 27 76 28 77
REMARK H PARENT 31 4 36 13 59 34 20 49 16 55 8 60 13 70 27 78 27 79 28 80
REMARK H PARENT 28 81
REMARK Flexibility Score:  259.900
ROOT
ATOM      1  O   UNL     1      -5.374   1.866   0.924  1.00  0.00    -0.273 OA
ATOM      2  N   UNL     1      -4.715   2.027   3.108  1.00  0.00    -0.343 N 
ATOM      3  C   UNL     1      -4.561   1.595   1.809  1.00  0.00     0.243 C 
ATOM      4  H   UNL     1      -4.018   1.797   3.806  1.00  0.00     0.164 HD
ENDROOT
BRANCH   2   5
ATOM      5  C   UNL     1      -5.924   2.732   3.518  1.00  0.00     0.171 C 
ATOM      6  C   UNL     1      -8.014   4.079   2.027  1.00  0.00     0.214 C 
ATOM      7  N   UNL     1      -6.864   4.830   2.476  1.00  0.00    -0.303 N 
ATOM      8  C   UNL     1      -8.364   2.914   2.938  1.00  0.00     0.057 C 
ATOM      9  C   UNL     1      -5.807   4.239   3.148  1.00  0.00     0.247 C 
ATOM     10  C   UNL     1      -7.176   1.985   3.062  1.00  0.00     0.040 C 
ATOM     11  O   UNL     1      -4.788   4.871   3.453  1.00  0.00    -0.272 OA
BRANCH   6  12
ATOM     12  O   UNL     1      -7.745   3.620   0.722  1.00  0.00    -0.373 OA
ATOM     13  H   UNL     1      -6.903   3.119   0.761  1.00  0.00     0.213 HD
ENDBRANCH   6  12
BRANCH   7  14
ATOM     14  C   UNL     1      -6.785   6.246   2.059  1.00  0.00     0.177 C 
BRANCH  14  15
ATOM     15  C   UNL     1      -6.143   6.489   0.680  1.00  0.00     0.038 C 
BRANCH  15  16
ATOM     16  C   UNL     1      -4.777   7.207   0.591  1.00  0.00    -0.015 C 
ATOM     17  C   UNL     1      -4.809   8.602   1.222  1.00  0.00     0.007 C 
ATOM     18  C   UNL     1      -4.362   7.352  -0.878  1.00  0.00     0.007 C 
ENDBRANCH  15  16
ENDBRANCH  14  15
BRANCH  14  19
ATOM     19  C   UNL     1      -7.987   7.057   2.656  1.00  0.00     0.245 C 
ATOM     20  O   UNL     1      -8.284   6.826   3.840  1.00  0.00    -0.272 OA
BRANCH  19  21
ATOM     21  N   UNL     1      -8.784   7.911   1.915  1.00  0.00    -0.332 N 
ATOM     22  C   UNL     1      -9.858   7.504   1.027  1.00  0.00     0.147 C 
BRANCH  21  23
ATOM     23  C   UNL     1      -8.521   9.373   2.020  1.00  0.00     0.178 C 
BRANCH  23  24
ATOM     24  C   UNL     1      -8.860  10.182   0.751  1.00  0.00     0.070 C 
BRANCH  24  25
ATOM     25  C   UNL     1      -7.754  10.368  -0.263  1.00  0.00    -0.045 A 
ATOM     26  C   UNL     1      -7.677   9.551  -1.398  1.00  0.00     0.004 A 
ATOM     27  C   UNL     1      -6.783  11.363  -0.075  1.00  0.00     0.004 A 
ATOM     28  C   UNL     1      -6.642   9.718  -2.321  1.00  0.00     0.000 A 
ATOM     29  C   UNL     1      -5.750  11.529  -0.999  1.00  0.00     0.000 A 
ATOM     30  C   UNL     1      -5.679  10.704  -2.120  1.00  0.00     0.000 A 
ENDBRANCH  24  25
ENDBRANCH  23  24
BRANCH  23  31
ATOM     31  C   UNL     1      -9.041   9.987   3.341  1.00  0.00     0.243 C 
ATOM     32  O   UNL     1      -8.328  10.238   4.309  1.00  0.00    -0.273 OA
ATOM     33  N   UNL     1     -10.422  10.061   3.411  1.00  0.00    -0.341 N 
ATOM     34  H   UNL     1     -10.963   9.833   2.574  1.00  0.00     0.164 HD
BRANCH  33  35
ATOM     35  C   UNL     1     -11.139  10.497   4.613  1.00  0.00     0.194 C 
BRANCH  35  36
ATOM     36  C   UNL     1     -12.423   9.676   4.920  1.00  0.00     0.017 C 
ATOM     37  C   UNL     1     -12.112   8.174   5.035  1.00  0.00     0.010 C 
ATOM     38  C   UNL     1     -13.513   9.838   3.853  1.00  0.00     0.010 C 
ENDBRANCH  35  36
BRANCH  35  39
ATOM     39  C   UNL     1     -11.412  12.027   4.623  1.00  0.00     0.329 C 
ATOM     40  O   UNL     1     -11.186  12.771   3.676  1.00  0.00    -0.250 OA
BRANCH  39  41
ATOM     41  O   UNL     1     -12.016  12.439   5.779  1.00  0.00    -0.458 OA
BRANCH  41  42
ATOM     42  C   UNL     1     -11.404  13.562   6.457  1.00  0.00     0.205 CG0
ATOM     43  C   UNL     1     -10.134  13.047   7.132  1.00  0.00     0.056 C 
ATOM     44  G   UNL     1     -12.416  14.138   7.468  1.00  0.00     0.000 G0
ENDBRANCH  41  42
ENDBRANCH  39  41
ENDBRANCH  35  39
ENDBRANCH  33  35
ENDBRANCH  23  31
ENDBRANCH  21  23
ENDBRANCH  19  21
ENDBRANCH  14  19
ENDBRANCH   7  14
ENDBRANCH   2   5
BRANCH   3  45
ATOM     45  C   UNL     1      -3.296   0.771   1.535  1.00  0.00     0.171 C 
BRANCH  45  46
ATOM     46  N   UNL     1      -3.703  -0.284   0.616  1.00  0.00    -0.342 N 
ATOM     47  C   UNL     1      -3.144  -0.432  -0.628  1.00  0.00     0.247 C 
ATOM     48  O   UNL     1      -2.211   0.264  -1.029  1.00  0.00    -0.273 OA
ATOM     49  H   UNL     1      -4.435  -0.918   0.931  1.00  0.00     0.164 HD
BRANCH  47  50
ATOM     50  C   UNL     1      -3.785  -1.518  -1.503  1.00  0.00     0.212 CG0
ATOM     51  G   UNL     1      -2.690  -2.545  -1.852  1.00  0.00     0.000 G0
BRANCH  50  52
ATOM     52  N   UNL     1      -4.867  -2.080  -0.698  1.00  0.00    -0.339 N 
ATOM     53  C   UNL     1      -4.904  -3.391  -0.292  1.00  0.00     0.243 C 
ATOM     54  O   UNL     1      -4.052  -4.211  -0.622  1.00  0.00    -0.273 OA
ATOM     55  H   UNL     1      -5.659  -1.477  -0.486  1.00  0.00     0.164 HD
BRANCH  53  56
ATOM     56  C   UNL     1      -6.186  -3.775   0.474  1.00  0.00     0.182 C 
BRANCH  56  57
ATOM     57  N   UNL     1      -6.173  -3.222   1.833  1.00  0.00    -0.344 N 
ATOM     58  C   UNL     1      -6.571  -1.937   2.109  1.00  0.00     0.220 C 
ATOM     59  O   UNL     1      -6.896  -1.141   1.235  1.00  0.00    -0.275 OA
ATOM     60  H   UNL     1      -6.009  -3.876   2.594  1.00  0.00     0.164 HD
BRANCH  58  61
ATOM     61  C   UNL     1      -6.530  -1.600   3.588  1.00  0.00     0.100 C 
BRANCH  61  62
ATOM     62  C   UNL     1      -5.115  -1.504   4.159  1.00  0.00     0.010 C 
BRANCH  62  63
ATOM     63  C   UNL     1      -5.058  -1.030   5.617  1.00  0.00     0.000 C 
BRANCH  63  64
ATOM     64  C   UNL     1      -6.135  -0.012   5.988  1.00  0.00    -0.003 C 
ATOM     65  C   UNL     1      -6.975  -0.496   7.161  1.00  0.00     0.004 C 
ENDBRANCH  63  64
ENDBRANCH  62  63
ENDBRANCH  61  62
ENDBRANCH  58  61
ENDBRANCH  56  57
BRANCH  56  66
ATOM     66  C   UNL     1      -6.412  -5.286   0.468  1.00  0.00     0.157 C 
BRANCH  66  67
ATOM     67  C   UNL     1      -6.019  -5.899   1.781  1.00  0.00     0.305 C 
ATOM     68  O   UNL     1      -6.770  -6.339   2.638  1.00  0.00    -0.252 OA
BRANCH  67  69
ATOM     69  O   UNL     1      -4.683  -5.977   1.931  1.00  0.00    -0.481 OA
ATOM     70  H   UNL     1      -4.384  -6.560   1.202  1.00  0.00     0.296 HD
ENDBRANCH  67  69
ENDBRANCH  66  67
ENDBRANCH  56  66
ENDBRANCH  53  56
ENDBRANCH  50  52
ENDBRANCH  47  50
ENDBRANCH  45  46
BRANCH  45  71
ATOM     71  C   UNL     1      -2.740   0.197   2.843  1.00  0.00     0.037 C 
BRANCH  71  72
ATOM     72  C   UNL     1      -1.384   0.806   3.209  1.00  0.00     0.026 C 
BRANCH  72  73
ATOM     73  C   UNL     1      -0.238  -0.161   2.917  1.00  0.00     0.146 C 
BRANCH  73  74
ATOM     74  N   UNL     1       0.180  -0.753   4.184  1.00  0.00    -0.254 NA
ATOM     75  C   UNL     1       1.087  -1.658   4.152  1.00  0.00     0.185 C 
ATOM     76  N   UNL     1       1.494  -2.221   5.301  1.00  0.00    -0.370 N 
ATOM     77  N   UNL     1       1.738  -2.165   3.090  1.00  0.00    -0.370 N 
ATOM     78  H   UNL     1       1.048  -1.902   6.149  1.00  0.00     0.159 HD
ATOM     79  H   UNL     1       2.089  -3.030   5.341  1.00  0.00     0.159 HD
ATOM     80  H   UNL     1       1.538  -1.832   2.158  1.00  0.00     0.159 HD
ATOM     81  H   UNL     1       2.516  -2.793   3.198  1.00  0.00     0.159 HD
ENDBRANCH  73  74
ENDBRANCH  72  73
ENDBRANCH  71  72
ENDBRANCH  45  71
ENDBRANCH   3  45
TORSDOF 20
ENDMDL
MODEL 39
REMARK VINA RESULT:    -5.813     10.883     15.629
REMARK INTER + INTRA:         -22.398
REMARK INTER:                 -19.118
REMARK INTRA:                  -3.281
REMARK UNBOUND:                -5.711
REMARK SMILES CCCCCC(=O)N[C@H](CC(=O)O)C(=O)N[C@H]1C(=O)N[C@H](CCCN=C(N)N)C(=O)N[C@@H]2CC[C@H](O)N(C2=O)[C@@H](CC(C)C)C(=O)N(C)[C@@H](Cc2ccccc2)C(=O)N[C@H](C(C)C)C(=O)O[C@@H]1C
REMARK SMILES IDX 30 1 31 2 29 3 32 5 35 6 37 7 34 8 38 9 33 10 39 11 36 12
REMARK SMILES IDX 40 14 41 15 42 16 43 17 44 18 45 19 46 20 47 21 48 22 49 23
REMARK SMILES IDX 50 24 51 25 52 26 56 27 53 28 55 29 54 30 57 31 58 32 59 33
REMARK SMILES IDX 60 35 61 36 62 37 63 38 64 39 65 40 66 41 67 42 68 43 21 45
REMARK SMILES IDX 20 46 18 47 19 48 17 50 16 52 14 53 15 54 9 56 8 57 6 58
REMARK SMILES IDX 7 59 5 61 4 62 3 63 2 64 1 65 10 66 11 67 12 68 13 69 22 71
REMARK SMILES IDX 23 72 24 73 25 74 26 75 27 76 28 77
REMARK H PARENT 31 4 36 13 59 34 20 49 16 55 8 60 13 70 27 78 27 79 28 80
REMARK H PARENT 28 81
REMARK Flexibility Score:  259.900
ROOT
ATOM      1  O   UNL     1      -6.084   4.258  -3.187  1.00  0.00    -0.273 OA
ATOM      2  N   UNL     1      -5.302   2.613  -4.570  1.00  0.00    -0.343 N 
ATOM      3  C   UNL     1      -5.934   3.814  -4.326  1.00  0.00     0.243 C 
ATOM      4  H   UNL     1      -5.183   2.286  -5.521  1.00  0.00     0.164 HD
ENDROOT
BRANCH   2   5
ATOM      5  C   UNL     1      -4.886   1.755  -3.466  1.00  0.00     0.171 C 
ATOM      6  C   UNL     1      -4.115  -1.037  -3.332  1.00  0.00     0.214 C 
ATOM      7  N   UNL     1      -5.500  -0.672  -3.139  1.00  0.00    -0.303 N 
ATOM      8  C   UNL     1      -3.141   0.041  -2.883  1.00  0.00     0.057 C 
ATOM      9  C   UNL     1      -5.944   0.636  -3.241  1.00  0.00     0.247 C 
ATOM     10  C   UNL     1      -3.427   1.330  -3.622  1.00  0.00     0.040 C 
ATOM     11  O   UNL     1      -7.144   0.930  -3.160  1.00  0.00    -0.272 OA
BRANCH   6  12
ATOM     12  O   UNL     1      -3.933  -1.327  -4.698  1.00  0.00    -0.373 OA
ATOM     13  H   UNL     1      -3.840  -2.301  -4.775  1.00  0.00     0.213 HD
ENDBRANCH   6  12
BRANCH   7  14
ATOM     14  C   UNL     1      -6.467  -1.777  -2.971  1.00  0.00     0.177 C 
BRANCH  14  15
ATOM     15  C   UNL     1      -7.942  -1.399  -3.206  1.00  0.00     0.038 C 
BRANCH  15  16
ATOM     16  C   UNL     1      -8.993  -1.723  -2.121  1.00  0.00    -0.015 C 
ATOM     17  C   UNL     1      -9.156  -3.229  -1.897  1.00  0.00     0.007 C 
ATOM     18  C   UNL     1     -10.355  -1.147  -2.530  1.00  0.00     0.007 C 
ENDBRANCH  15  16
ENDBRANCH  14  15
BRANCH  14  19
ATOM     19  C   UNL     1      -5.806  -3.143  -3.367  1.00  0.00     0.245 C 
ATOM     20  O   UNL     1      -5.840  -3.452  -4.570  1.00  0.00    -0.272 OA
BRANCH  19  21
ATOM     21  N   UNL     1      -5.302  -4.049  -2.452  1.00  0.00    -0.332 N 
ATOM     22  C   UNL     1      -5.072  -3.785  -1.043  1.00  0.00     0.147 C 
BRANCH  21  23
ATOM     23  C   UNL     1      -4.950  -5.410  -2.942  1.00  0.00     0.178 C 
BRANCH  23  24
ATOM     24  C   UNL     1      -3.503  -5.851  -2.641  1.00  0.00     0.070 C 
BRANCH  24  25
ATOM     25  C   UNL     1      -2.641  -6.236  -3.821  1.00  0.00    -0.045 A 
ATOM     26  C   UNL     1      -2.763  -7.497  -4.418  1.00  0.00     0.004 A 
ATOM     27  C   UNL     1      -1.697  -5.332  -4.333  1.00  0.00     0.004 A 
ATOM     28  C   UNL     1      -1.951  -7.851  -5.497  1.00  0.00     0.000 A 
ATOM     29  C   UNL     1      -0.887  -5.687  -5.412  1.00  0.00     0.000 A 
ATOM     30  C   UNL     1      -1.013  -6.948  -5.992  1.00  0.00     0.000 A 
ENDBRANCH  24  25
ENDBRANCH  23  24
BRANCH  23  31
ATOM     31  C   UNL     1      -6.033  -6.467  -2.620  1.00  0.00     0.243 C 
ATOM     32  O   UNL     1      -7.176  -6.439  -3.070  1.00  0.00    -0.273 OA
ATOM     33  N   UNL     1      -5.660  -7.355  -1.625  1.00  0.00    -0.341 N 
ATOM     34  H   UNL     1      -4.696  -7.327  -1.285  1.00  0.00     0.164 HD
BRANCH  33  35
ATOM     35  C   UNL     1      -6.568  -8.365  -1.075  1.00  0.00     0.194 C 
BRANCH  35  36
ATOM     36  C   UNL     1      -6.934  -8.144   0.420  1.00  0.00     0.017 C 
ATOM     37  C   UNL     1      -8.458  -8.083   0.620  1.00  0.00     0.010 C 
ATOM     38  C   UNL     1      -6.343  -6.854   1.001  1.00  0.00     0.010 C 
ENDBRANCH  35  36
BRANCH  35  39
ATOM     39  C   UNL     1      -6.082  -9.817  -1.344  1.00  0.00     0.329 C 
ATOM     40  O   UNL     1      -4.961 -10.101  -1.750  1.00  0.00    -0.250 OA
BRANCH  39  41
ATOM     41  O   UNL     1      -7.017 -10.752  -0.995  1.00  0.00    -0.458 OA
BRANCH  41  42
ATOM     42  C   UNL     1      -7.937 -11.158  -2.036  1.00  0.00     0.205 CG0
ATOM     43  C   UNL     1      -9.329 -11.228  -1.410  1.00  0.00     0.056 C 
ATOM     44  G   UNL     1      -7.475 -12.517  -2.598  1.00  0.00     0.000 G0
ENDBRANCH  41  42
ENDBRANCH  39  41
ENDBRANCH  35  39
ENDBRANCH  33  35
ENDBRANCH  23  31
ENDBRANCH  21  23
ENDBRANCH  19  21
ENDBRANCH  14  19
ENDBRANCH   7  14
ENDBRANCH   2   5
BRANCH   3  45
ATOM     45  C   UNL     1      -6.418   4.567  -5.572  1.00  0.00     0.171 C 
BRANCH  45  46
ATOM     46  N   UNL     1      -5.453   5.638  -5.784  1.00  0.00    -0.342 N 
ATOM     47  C   UNL     1      -4.587   5.648  -6.848  1.00  0.00     0.247 C 
ATOM     48  O   UNL     1      -4.611   4.796  -7.738  1.00  0.00    -0.273 OA
ATOM     49  H   UNL     1      -5.437   6.393  -5.101  1.00  0.00     0.164 HD
BRANCH  47  50
ATOM     50  C   UNL     1      -3.559   6.788  -6.840  1.00  0.00     0.212 CG0
ATOM     51  G   UNL     1      -4.020   7.840  -7.869  1.00  0.00     0.000 G0
BRANCH  50  52
ATOM     52  N   UNL     1      -3.546   7.290  -5.469  1.00  0.00    -0.339 N 
ATOM     53  C   UNL     1      -2.584   8.145  -4.986  1.00  0.00     0.243 C 
ATOM     54  O   UNL     1      -1.627   8.513  -5.661  1.00  0.00    -0.273 OA
ATOM     55  H   UNL     1      -4.251   6.933  -4.828  1.00  0.00     0.164 HD
BRANCH  53  56
ATOM     56  C   UNL     1      -2.729   8.469  -3.485  1.00  0.00     0.182 C 
BRANCH  56  57
ATOM     57  N   UNL     1      -3.863   9.367  -3.247  1.00  0.00    -0.344 N 
ATOM     58  C   UNL     1      -4.836   9.095  -2.317  1.00  0.00     0.220 C 
ATOM     59  O   UNL     1      -4.865   8.051  -1.674  1.00  0.00    -0.275 OA
ATOM     60  H   UNL     1      -3.822  10.285  -3.683  1.00  0.00     0.164 HD
BRANCH  58  61
ATOM     61  C   UNL     1      -5.879  10.190  -2.198  1.00  0.00     0.100 C 
BRANCH  61  62
ATOM     62  C   UNL     1      -5.911  10.865  -0.827  1.00  0.00     0.010 C 
BRANCH  62  63
ATOM     63  C   UNL     1      -5.080  12.151  -0.741  1.00  0.00     0.000 C 
BRANCH  63  64
ATOM     64  C   UNL     1      -3.578  11.918  -0.594  1.00  0.00    -0.003 C 
ATOM     65  C   UNL     1      -2.808  12.498  -1.771  1.00  0.00     0.004 C 
ENDBRANCH  63  64
ENDBRANCH  62  63
ENDBRANCH  61  62
ENDBRANCH  58  61
ENDBRANCH  56  57
BRANCH  56  66
ATOM     66  C   UNL     1      -1.427   9.016  -2.903  1.00  0.00     0.157 C 
BRANCH  66  67
ATOM     67  C   UNL     1      -1.130   8.404  -1.564  1.00  0.00     0.305 C 
ATOM     68  O   UNL     1      -1.682   8.657  -0.504  1.00  0.00    -0.252 OA
BRANCH  67  69
ATOM     69  O   UNL     1      -0.178   7.454  -1.636  1.00  0.00    -0.481 OA
ATOM     70  H   UNL     1      -0.015   7.335  -2.595  1.00  0.00     0.296 HD
ENDBRANCH  67  69
ENDBRANCH  66  67
ENDBRANCH  56  66
ENDBRANCH  53  56
ENDBRANCH  50  52
ENDBRANCH  47  50
ENDBRANCH  45  46
BRANCH  45  71
ATOM     71  C   UNL     1      -7.831   5.116  -5.348  1.00  0.00     0.037 C 
BRANCH  71  72
ATOM     72  C   UNL     1      -8.813   4.631  -6.417  1.00  0.00     0.026 C 
BRANCH  72  73
ATOM     73  C   UNL     1      -8.581   5.334  -7.753  1.00  0.00     0.146 C 
BRANCH  73  74
ATOM     74  N   UNL     1      -8.809   6.762  -7.552  1.00  0.00    -0.254 NA
ATOM     75  C   UNL     1      -9.690   7.336  -8.285  1.00  0.00     0.185 C 
ATOM     76  N   UNL     1      -9.923   8.649  -8.123  1.00  0.00    -0.370 N 
ATOM     77  N   UNL     1     -10.465   6.806  -9.247  1.00  0.00    -0.370 N 
ATOM     78  H   UNL     1      -9.376   9.128  -7.422  1.00  0.00     0.159 HD
ATOM     79  H   UNL     1     -10.487   9.192  -8.752  1.00  0.00     0.159 HD
ATOM     80  H   UNL     1     -10.401   5.825  -9.476  1.00  0.00     0.159 HD
ATOM     81  H   UNL     1     -11.206   7.333  -9.678  1.00  0.00     0.159 HD
ENDBRANCH  73  74
ENDBRANCH  72  73
ENDBRANCH  71  72
ENDBRANCH  45  71
ENDBRANCH   3  45
TORSDOF 20
ENDMDL
MODEL 40
REMARK VINA RESULT:    -5.807     10.961     15.622
REMARK INTER + INTRA:         -22.380
REMARK INTER:                 -18.105
REMARK INTRA:                  -4.275
REMARK UNBOUND:                -5.711
REMARK SMILES CCCCCC(=O)N[C@H](CC(=O)O)C(=O)N[C@H]1C(=O)N[C@H](CCCN=C(N)N)C(=O)N[C@@H]2CC[C@H](O)N(C2=O)[C@@H](CC(C)C)C(=O)N(C)[C@@H](Cc2ccccc2)C(=O)N[C@H](C(C)C)C(=O)O[C@@H]1C
REMARK SMILES IDX 30 1 31 2 29 3 32 5 35 6 37 7 34 8 38 9 33 10 39 11 36 12
REMARK SMILES IDX 40 14 41 15 42 16 43 17 44 18 45 19 46 20 47 21 48 22 49 23
REMARK SMILES IDX 50 24 51 25 52 26 56 27 53 28 55 29 54 30 57 31 58 32 59 33
REMARK SMILES IDX 60 35 61 36 62 37 63 38 64 39 65 40 66 41 67 42 68 43 21 45
REMARK SMILES IDX 20 46 18 47 19 48 17 50 16 52 14 53 15 54 9 56 8 57 6 58
REMARK SMILES IDX 7 59 5 61 4 62 3 63 2 64 1 65 10 66 11 67 12 68 13 69 22 71
REMARK SMILES IDX 23 72 24 73 25 74 26 75 27 76 28 77
REMARK H PARENT 31 4 36 13 59 34 20 49 16 55 8 60 13 70 27 78 27 79 28 80
REMARK H PARENT 28 81
REMARK Flexibility Score:  259.900
ROOT
ATOM      1  O   UNL     1      -7.268   3.885  -4.082  1.00  0.00    -0.273 OA
ATOM      2  N   UNL     1      -6.132   2.235  -5.186  1.00  0.00    -0.343 N 
ATOM      3  C   UNL     1      -7.009   3.297  -5.133  1.00  0.00     0.243 C 
ATOM      4  H   UNL     1      -5.932   1.785  -6.071  1.00  0.00     0.164 HD
ENDROOT
BRANCH   2   5
ATOM      5  C   UNL     1      -5.561   1.682  -3.963  1.00  0.00     0.171 C 
ATOM      6  C   UNL     1      -3.932  -0.658  -3.439  1.00  0.00     0.214 C 
ATOM      7  N   UNL     1      -5.371  -0.764  -3.367  1.00  0.00    -0.303 N 
ATOM      8  C   UNL     1      -3.411   0.724  -3.078  1.00  0.00     0.057 C 
ATOM      9  C   UNL     1      -6.209   0.302  -3.655  1.00  0.00     0.247 C 
ATOM     10  C   UNL     1      -4.035   1.760  -3.987  1.00  0.00     0.040 C 
ATOM     11  O   UNL     1      -7.440   0.181  -3.676  1.00  0.00    -0.272 OA
BRANCH   6  12
ATOM     12  O   UNL     1      -3.540  -1.006  -4.747  1.00  0.00    -0.373 OA
ATOM     13  H   UNL     1      -2.646  -1.404  -4.683  1.00  0.00     0.213 HD
ENDBRANCH   6  12
BRANCH   7  14
ATOM     14  C   UNL     1      -5.933  -2.107  -3.113  1.00  0.00     0.177 C 
BRANCH  14  15
ATOM     15  C   UNL     1      -7.467  -2.161  -2.978  1.00  0.00     0.038 C 
BRANCH  15  16
ATOM     16  C   UNL     1      -8.098  -2.711  -1.679  1.00  0.00    -0.015 C 
ATOM     17  C   UNL     1      -9.441  -2.049  -1.357  1.00  0.00     0.007 C 
ATOM     18  C   UNL     1      -7.148  -2.470  -0.499  1.00  0.00     0.007 C 
ENDBRANCH  15  16
ENDBRANCH  14  15
BRANCH  14  19
ATOM     19  C   UNL     1      -5.043  -3.206  -3.790  1.00  0.00     0.245 C 
ATOM     20  O   UNL     1      -5.093  -3.282  -5.029  1.00  0.00    -0.272 OA
BRANCH  19  21
ATOM     21  N   UNL     1      -4.309  -4.144  -3.087  1.00  0.00    -0.332 N 
ATOM     22  C   UNL     1      -3.462  -3.866  -1.941  1.00  0.00     0.147 C 
BRANCH  21  23
ATOM     23  C   UNL     1      -4.377  -5.562  -3.539  1.00  0.00     0.178 C 
BRANCH  23  24
ATOM     24  C   UNL     1      -3.111  -6.394  -3.246  1.00  0.00     0.070 C 
BRANCH  24  25
ATOM     25  C   UNL     1      -2.108  -6.538  -4.367  1.00  0.00    -0.045 A 
ATOM     26  C   UNL     1      -1.961  -7.754  -5.046  1.00  0.00     0.004 A 
ATOM     27  C   UNL     1      -1.303  -5.451  -4.740  1.00  0.00     0.004 A 
ATOM     28  C   UNL     1      -1.020  -7.884  -6.070  1.00  0.00     0.000 A 
ATOM     29  C   UNL     1      -0.363  -5.582  -5.763  1.00  0.00     0.000 A 
ATOM     30  C   UNL     1      -0.220  -6.800  -6.426  1.00  0.00     0.000 A 
ENDBRANCH  24  25
ENDBRANCH  23  24
BRANCH  23  31
ATOM     31  C   UNL     1      -5.711  -6.251  -3.166  1.00  0.00     0.243 C 
ATOM     32  O   UNL     1      -6.705  -6.259  -3.887  1.00  0.00    -0.273 OA
ATOM     33  N   UNL     1      -5.752  -6.706  -1.859  1.00  0.00    -0.341 N 
ATOM     34  H   UNL     1      -4.893  -6.668  -1.305  1.00  0.00     0.164 HD
BRANCH  33  35
ATOM     35  C   UNL     1      -6.953  -7.285  -1.252  1.00  0.00     0.194 C 
BRANCH  35  36
ATOM     36  C   UNL     1      -7.262  -6.754   0.177  1.00  0.00     0.017 C 
ATOM     37  C   UNL     1      -8.590  -5.980   0.211  1.00  0.00     0.010 C 
ATOM     38  C   UNL     1      -6.173  -5.822   0.723  1.00  0.00     0.010 C 
ENDBRANCH  35  36
BRANCH  35  39
ATOM     39  C   UNL     1      -6.963  -8.838  -1.309  1.00  0.00     0.329 C 
ATOM     40  O   UNL     1      -6.859  -9.488  -2.342  1.00  0.00    -0.250 OA
BRANCH  39  41
ATOM     41  O   UNL     1      -7.014  -9.404  -0.064  1.00  0.00    -0.458 OA
BRANCH  41  42
ATOM     42  C   UNL     1      -7.982 -10.465   0.118  1.00  0.00     0.205 CG0
ATOM     43  C   UNL     1      -9.178  -9.867   0.854  1.00  0.00     0.056 C 
ATOM     44  G   UNL     1      -7.314 -11.608   0.908  1.00  0.00     0.000 G0
ENDBRANCH  41  42
ENDBRANCH  39  41
ENDBRANCH  35  39
ENDBRANCH  33  35
ENDBRANCH  23  31
ENDBRANCH  21  23
ENDBRANCH  19  21
ENDBRANCH  14  19
ENDBRANCH   7  14
ENDBRANCH   2   5
BRANCH   3  45
ATOM     45  C   UNL     1      -7.622   3.711  -6.477  1.00  0.00     0.171 C 
BRANCH  45  46
ATOM     46  N   UNL     1      -6.817   4.829  -6.951  1.00  0.00    -0.342 N 
ATOM     47  C   UNL     1      -6.627   5.087  -8.285  1.00  0.00     0.247 C 
ATOM     48  O   UNL     1      -7.178   4.440  -9.176  1.00  0.00    -0.273 OA
ATOM     49  H   UNL     1      -6.388   5.425  -6.245  1.00  0.00     0.164 HD
BRANCH  47  50
ATOM     50  C   UNL     1      -5.648   6.229  -8.593  1.00  0.00     0.212 CG0
ATOM     51  G   UNL     1      -6.477   7.515  -8.782  1.00  0.00     0.000 G0
BRANCH  50  52
ATOM     52  N   UNL     1      -4.745   6.288  -7.447  1.00  0.00    -0.339 N 
ATOM     53  C   UNL     1      -3.675   7.146  -7.372  1.00  0.00     0.243 C 
ATOM     54  O   UNL     1      -3.363   7.897  -8.292  1.00  0.00    -0.273 OA
ATOM     55  H   UNL     1      -4.885   5.612  -6.699  1.00  0.00     0.164 HD
BRANCH  53  56
ATOM     56  C   UNL     1      -2.814   6.967  -6.105  1.00  0.00     0.182 C 
BRANCH  56  57
ATOM     57  N   UNL     1      -3.543   7.399  -4.908  1.00  0.00    -0.344 N 
ATOM     58  C   UNL     1      -4.211   6.517  -4.095  1.00  0.00     0.220 C 
ATOM     59  O   UNL     1      -4.308   5.322  -4.350  1.00  0.00    -0.275 OA
ATOM     60  H   UNL     1      -3.404   8.360  -4.607  1.00  0.00     0.164 HD
BRANCH  58  61
ATOM     61  C   UNL     1      -4.844   7.177  -2.883  1.00  0.00     0.100 C 
BRANCH  61  62
ATOM     62  C   UNL     1      -4.023   8.335  -2.314  1.00  0.00     0.010 C 
BRANCH  62  63
ATOM     63  C   UNL     1      -2.896   7.900  -1.369  1.00  0.00     0.000 C 
BRANCH  63  64
ATOM     64  C   UNL     1      -3.046   8.414   0.062  1.00  0.00    -0.003 C 
ATOM     65  C   UNL     1      -3.980   7.529   0.875  1.00  0.00     0.004 C 
ENDBRANCH  63  64
ENDBRANCH  62  63
ENDBRANCH  61  62
ENDBRANCH  58  61
ENDBRANCH  56  57
BRANCH  56  66
ATOM     66  C   UNL     1      -1.463   7.667  -6.242  1.00  0.00     0.157 C 
BRANCH  66  67
ATOM     67  C   UNL     1      -1.294   8.731  -5.197  1.00  0.00     0.305 C 
ATOM     68  O   UNL     1      -1.697   9.883  -5.252  1.00  0.00    -0.252 OA
BRANCH  67  69
ATOM     69  O   UNL     1      -0.663   8.275  -4.099  1.00  0.00    -0.481 OA
ATOM     70  H   UNL     1      -0.052   7.583  -4.430  1.00  0.00     0.296 HD
ENDBRANCH  67  69
ENDBRANCH  66  67
ENDBRANCH  56  66
ENDBRANCH  53  56
ENDBRANCH  50  52
ENDBRANCH  47  50
ENDBRANCH  45  46
BRANCH  45  71
ATOM     71  C   UNL     1      -9.091   4.109  -6.294  1.00  0.00     0.037 C 
BRANCH  71  72
ATOM     72  C   UNL     1     -10.019   3.334  -7.232  1.00  0.00     0.026 C 
BRANCH  72  73
ATOM     73  C   UNL     1     -11.293   4.119  -7.535  1.00  0.00     0.146 C 
BRANCH  73  74
ATOM     74  N   UNL     1     -11.095   4.822  -8.799  1.00  0.00    -0.254 NA
ATOM     75  C   UNL     1     -11.213   6.099  -8.800  1.00  0.00     0.185 C 
ATOM     76  N   UNL     1     -11.035   6.773  -9.947  1.00  0.00    -0.370 N 
ATOM     77  N   UNL     1     -11.502   6.921  -7.776  1.00  0.00    -0.370 N 
ATOM     78  H   UNL     1     -10.821   6.228 -10.770  1.00  0.00     0.159 HD
ATOM     79  H   UNL     1     -11.251   7.748 -10.055  1.00  0.00     0.159 HD
ATOM     80  H   UNL     1     -11.657   6.553  -6.850  1.00  0.00     0.159 HD
ATOM     81  H   UNL     1     -11.453   7.922  -7.873  1.00  0.00     0.159 HD
ENDBRANCH  73  74
ENDBRANCH  72  73
ENDBRANCH  71  72
ENDBRANCH  45  71
ENDBRANCH   3  45
TORSDOF 20
ENDMDL
MODEL 41
REMARK VINA RESULT:    -5.788      8.877     12.692
REMARK INTER + INTRA:         -22.325
REMARK INTER:                 -15.942
REMARK INTRA:                  -6.384
REMARK UNBOUND:                -5.711
REMARK SMILES CCCCCC(=O)N[C@H](CC(=O)O)C(=O)N[C@H]1C(=O)N[C@H](CCCN=C(N)N)C(=O)N[C@@H]2CC[C@H](O)N(C2=O)[C@@H](CC(C)C)C(=O)N(C)[C@@H](Cc2ccccc2)C(=O)N[C@H](C(C)C)C(=O)O[C@@H]1C
REMARK SMILES IDX 30 1 31 2 29 3 32 5 35 6 37 7 34 8 38 9 33 10 39 11 36 12
REMARK SMILES IDX 40 14 41 15 42 16 43 17 44 18 45 19 46 20 47 21 48 22 49 23
REMARK SMILES IDX 50 24 51 25 52 26 56 27 53 28 55 29 54 30 57 31 58 32 59 33
REMARK SMILES IDX 60 35 61 36 62 37 63 38 64 39 65 40 66 41 67 42 68 43 21 45
REMARK SMILES IDX 20 46 18 47 19 48 17 50 16 52 14 53 15 54 9 56 8 57 6 58
REMARK SMILES IDX 7 59 5 61 4 62 3 63 2 64 1 65 10 66 11 67 12 68 13 69 22 71
REMARK SMILES IDX 23 72 24 73 25 74 26 75 27 76 28 77
REMARK H PARENT 31 4 36 13 59 34 20 49 16 55 8 60 13 70 27 78 27 79 28 80
REMARK H PARENT 28 81
REMARK Flexibility Score:  259.900
ROOT
ATOM      1  O   UNL     1      -7.281   2.841  -0.654  1.00  0.00    -0.273 OA
ATOM      2  N   UNL     1      -8.709   4.457  -1.416  1.00  0.00    -0.343 N 
ATOM      3  C   UNL     1      -7.819   3.420  -1.598  1.00  0.00     0.243 C 
ATOM      4  H   UNL     1      -9.144   4.900  -2.215  1.00  0.00     0.164 HD
ENDROOT
BRANCH   2   5
ATOM      5  C   UNL     1      -8.959   4.995  -0.083  1.00  0.00     0.171 C 
ATOM      6  C   UNL     1     -10.661   7.133   0.885  1.00  0.00     0.214 C 
ATOM      7  N   UNL     1      -9.295   7.424   0.516  1.00  0.00    -0.303 N 
ATOM      8  C   UNL     1     -10.856   5.717   1.401  1.00  0.00     0.057 C 
ATOM      9  C   UNL     1      -8.444   6.460  -0.000  1.00  0.00     0.247 C 
ATOM     10  C   UNL     1     -10.396   4.722   0.357  1.00  0.00     0.040 C 
ATOM     11  O   UNL     1      -7.303   6.736  -0.394  1.00  0.00    -0.272 OA
BRANCH   6  12
ATOM     12  O   UNL     1     -11.469   7.360  -0.247  1.00  0.00    -0.373 OA
ATOM     13  H   UNL     1     -11.733   8.305  -0.226  1.00  0.00     0.213 HD
ENDBRANCH   6  12
BRANCH   7  14
ATOM     14  C   UNL     1      -8.872   8.839   0.573  1.00  0.00     0.177 C 
BRANCH  14  15
ATOM     15  C   UNL     1      -8.916   9.592  -0.771  1.00  0.00     0.038 C 
BRANCH  15  16
ATOM     16  C   UNL     1      -7.734  10.503  -1.171  1.00  0.00    -0.015 C 
ATOM     17  C   UNL     1      -8.057  11.990  -0.997  1.00  0.00     0.007 C 
ATOM     18  C   UNL     1      -7.368  10.260  -2.641  1.00  0.00     0.007 C 
ENDBRANCH  15  16
ENDBRANCH  14  15
BRANCH  14  19
ATOM     19  C   UNL     1      -9.226   9.456   1.970  1.00  0.00     0.245 C 
ATOM     20  O   UNL     1     -10.138  10.300   1.994  1.00  0.00    -0.272 OA
BRANCH  19  21
ATOM     21  N   UNL     1      -8.515   9.199   3.129  1.00  0.00    -0.332 N 
ATOM     22  C   UNL     1      -8.867   8.209   4.131  1.00  0.00     0.147 C 
BRANCH  21  23
ATOM     23  C   UNL     1      -7.292  10.007   3.389  1.00  0.00     0.178 C 
BRANCH  23  24
ATOM     24  C   UNL     1      -6.439  10.308   2.139  1.00  0.00     0.070 C 
BRANCH  24  25
ATOM     25  C   UNL     1      -5.547   9.199   1.632  1.00  0.00    -0.045 A 
ATOM     26  C   UNL     1      -5.513   7.955   2.274  1.00  0.00     0.004 A 
ATOM     27  C   UNL     1      -4.733   9.405   0.507  1.00  0.00     0.004 A 
ATOM     28  C   UNL     1      -4.672   6.941   1.809  1.00  0.00     0.000 A 
ATOM     29  C   UNL     1      -3.895   8.390   0.043  1.00  0.00     0.000 A 
ATOM     30  C   UNL     1      -3.863   7.160   0.696  1.00  0.00     0.000 A 
ENDBRANCH  24  25
ENDBRANCH  23  24
BRANCH  23  31
ATOM     31  C   UNL     1      -7.556  11.225   4.306  1.00  0.00     0.243 C 
ATOM     32  O   UNL     1      -8.676  11.618   4.621  1.00  0.00    -0.273 OA
ATOM     33  N   UNL     1      -6.416  11.956   4.596  1.00  0.00    -0.341 N 
ATOM     34  H   UNL     1      -5.511  11.582   4.301  1.00  0.00     0.164 HD
BRANCH  33  35
ATOM     35  C   UNL     1      -6.444  13.214   5.348  1.00  0.00     0.194 C 
BRANCH  35  36
ATOM     36  C   UNL     1      -5.736  14.398   4.631  1.00  0.00     0.017 C 
ATOM     37  C   UNL     1      -6.193  14.520   3.167  1.00  0.00     0.010 C 
ATOM     38  C   UNL     1      -4.207  14.274   4.625  1.00  0.00     0.010 C 
ENDBRANCH  35  36
BRANCH  35  39
ATOM     39  C   UNL     1      -5.953  13.046   6.813  1.00  0.00     0.329 C 
ATOM     40  O   UNL     1      -5.590  11.980   7.297  1.00  0.00    -0.250 OA
BRANCH  39  41
ATOM     41  O   UNL     1      -5.889  14.238   7.480  1.00  0.00    -0.458 OA
BRANCH  41  42
ATOM     42  C   UNL     1      -6.506  14.274   8.789  1.00  0.00     0.205 CG0
ATOM     43  C   UNL     1      -8.015  14.379   8.577  1.00  0.00     0.056 C 
ATOM     44  G   UNL     1      -5.936  15.476   9.568  1.00  0.00     0.000 G0
ENDBRANCH  41  42
ENDBRANCH  39  41
ENDBRANCH  35  39
ENDBRANCH  33  35
ENDBRANCH  23  31
ENDBRANCH  21  23
ENDBRANCH  19  21
ENDBRANCH  14  19
ENDBRANCH   7  14
ENDBRANCH   2   5
BRANCH   3  45
ATOM     45  C   UNL     1      -7.564   3.022  -3.058  1.00  0.00     0.171 C 
BRANCH  45  46
ATOM     46  N   UNL     1      -7.262   1.597  -3.031  1.00  0.00    -0.342 N 
ATOM     47  C   UNL     1      -7.581   0.757  -4.068  1.00  0.00     0.247 C 
ATOM     48  O   UNL     1      -8.077   1.155  -5.122  1.00  0.00    -0.273 OA
ATOM     49  H   UNL     1      -6.800   1.235  -2.199  1.00  0.00     0.164 HD
BRANCH  47  50
ATOM     50  C   UNL     1      -7.300  -0.730  -3.809  1.00  0.00     0.212 CG0
ATOM     51  G   UNL     1      -6.934  -1.378  -5.160  1.00  0.00     0.000 G0
BRANCH  50  52
ATOM     52  N   UNL     1      -6.207  -0.758  -2.841  1.00  0.00    -0.339 N 
ATOM     53  C   UNL     1      -5.059  -1.492  -3.017  1.00  0.00     0.243 C 
ATOM     54  O   UNL     1      -4.887  -2.229  -3.984  1.00  0.00    -0.273 OA
ATOM     55  H   UNL     1      -6.338  -0.255  -1.966  1.00  0.00     0.164 HD
BRANCH  53  56
ATOM     56  C   UNL     1      -4.087  -1.433  -1.822  1.00  0.00     0.182 C 
BRANCH  56  57
ATOM     57  N   UNL     1      -4.357  -0.262  -0.981  1.00  0.00    -0.344 N 
ATOM     58  C   UNL     1      -4.290  -0.310   0.390  1.00  0.00     0.220 C 
ATOM     59  O   UNL     1      -4.072  -1.346   1.008  1.00  0.00    -0.275 OA
ATOM     60  H   UNL     1      -4.440   0.634  -1.453  1.00  0.00     0.164 HD
BRANCH  58  61
ATOM     61  C   UNL     1      -4.550   1.031   1.052  1.00  0.00     0.100 C 
BRANCH  61  62
ATOM     62  C   UNL     1      -5.227   0.923   2.418  1.00  0.00     0.010 C 
BRANCH  62  63
ATOM     63  C   UNL     1      -6.345   1.948   2.647  1.00  0.00     0.000 C 
BRANCH  63  64
ATOM     64  C   UNL     1      -5.850   3.374   2.878  1.00  0.00    -0.003 C 
ATOM     65  C   UNL     1      -7.008   4.359   2.951  1.00  0.00     0.004 C 
ENDBRANCH  63  64
ENDBRANCH  62  63
ENDBRANCH  61  62
ENDBRANCH  58  61
ENDBRANCH  56  57
BRANCH  56  66
ATOM     66  C   UNL     1      -2.631  -1.489  -2.281  1.00  0.00     0.157 C 
BRANCH  66  67
ATOM     67  C   UNL     1      -2.129  -0.126  -2.666  1.00  0.00     0.305 C 
ATOM     68  O   UNL     1      -1.797   0.773  -1.908  1.00  0.00    -0.252 OA
BRANCH  67  69
ATOM     69  O   UNL     1      -2.020   0.021  -4.000  1.00  0.00    -0.481 OA
ATOM     70  H   UNL     1      -1.259  -0.544  -4.252  1.00  0.00     0.296 HD
ENDBRANCH  67  69
ENDBRANCH  66  67
ENDBRANCH  56  66
ENDBRANCH  53  56
ENDBRANCH  50  52
ENDBRANCH  47  50
ENDBRANCH  45  46
BRANCH  45  71
ATOM     71  C   UNL     1      -6.402   3.836  -3.637  1.00  0.00     0.037 C 
BRANCH  71  72
ATOM     72  C   UNL     1      -6.741   4.430  -5.006  1.00  0.00     0.026 C 
BRANCH  72  73
ATOM     73  C   UNL     1      -5.721   4.017  -6.065  1.00  0.00     0.146 C 
BRANCH  73  74
ATOM     74  N   UNL     1      -5.325   5.217  -6.796  1.00  0.00    -0.254 NA
ATOM     75  C   UNL     1      -4.326   5.887  -6.353  1.00  0.00     0.185 C 
ATOM     76  N   UNL     1      -3.938   6.995  -7.005  1.00  0.00    -0.370 N 
ATOM     77  N   UNL     1      -3.558   5.646  -5.276  1.00  0.00    -0.370 N 
ATOM     78  H   UNL     1      -4.469   7.253  -7.825  1.00  0.00     0.159 HD
ATOM     79  H   UNL     1      -3.264   7.645  -6.640  1.00  0.00     0.159 HD
ATOM     80  H   UNL     1      -3.731   4.842  -4.692  1.00  0.00     0.159 HD
ATOM     81  H   UNL     1      -2.725   6.180  -5.091  1.00  0.00     0.159 HD
ENDBRANCH  73  74
ENDBRANCH  72  73
ENDBRANCH  71  72
ENDBRANCH  45  71
ENDBRANCH   3  45
TORSDOF 20
ENDMDL
MODEL 42
REMARK VINA RESULT:    -5.754      9.064     13.850
REMARK INTER + INTRA:         -22.227
REMARK INTER:                 -14.984
REMARK INTRA:                  -7.244
REMARK UNBOUND:                -5.711
REMARK SMILES CCCCCC(=O)N[C@H](CC(=O)O)C(=O)N[C@H]1C(=O)N[C@H](CCCN=C(N)N)C(=O)N[C@@H]2CC[C@H](O)N(C2=O)[C@@H](CC(C)C)C(=O)N(C)[C@@H](Cc2ccccc2)C(=O)N[C@H](C(C)C)C(=O)O[C@@H]1C
REMARK SMILES IDX 30 1 31 2 29 3 32 5 35 6 37 7 34 8 38 9 33 10 39 11 36 12
REMARK SMILES IDX 40 14 41 15 42 16 43 17 44 18 45 19 46 20 47 21 48 22 49 23
REMARK SMILES IDX 50 24 51 25 52 26 56 27 53 28 55 29 54 30 57 31 58 32 59 33
REMARK SMILES IDX 60 35 61 36 62 37 63 38 64 39 65 40 66 41 67 42 68 43 21 45
REMARK SMILES IDX 20 46 18 47 19 48 17 50 16 52 14 53 15 54 9 56 8 57 6 58
REMARK SMILES IDX 7 59 5 61 4 62 3 63 2 64 1 65 10 66 11 67 12 68 13 69 22 71
REMARK SMILES IDX 23 72 24 73 25 74 26 75 27 76 28 77
REMARK H PARENT 31 4 36 13 59 34 20 49 16 55 8 60 13 70 27 78 27 79 28 80
REMARK H PARENT 28 81
REMARK Flexibility Score:  259.900
ROOT
ATOM      1  O   UNL     1      -7.345   5.298   2.363  1.00  0.00    -0.273 OA
ATOM      2  N   UNL     1      -8.815   6.874   1.598  1.00  0.00    -0.343 N 
ATOM      3  C   UNL     1      -7.866   5.891   1.418  1.00  0.00     0.243 C 
ATOM      4  H   UNL     1      -9.233   7.331   0.797  1.00  0.00     0.164 HD
ENDROOT
BRANCH   2   5
ATOM      5  C   UNL     1      -9.158   7.339   2.938  1.00  0.00     0.171 C 
ATOM      6  C   UNL     1     -11.106   9.249   3.916  1.00  0.00     0.214 C 
ATOM      7  N   UNL     1      -9.770   9.697   3.598  1.00  0.00    -0.303 N 
ATOM      8  C   UNL     1     -11.161   7.804   4.385  1.00  0.00     0.057 C 
ATOM      9  C   UNL     1      -8.807   8.847   3.079  1.00  0.00     0.247 C 
ATOM     10  C   UNL     1     -10.568   6.899   3.327  1.00  0.00     0.040 C 
ATOM     11  O   UNL     1      -7.692   9.257   2.728  1.00  0.00    -0.272 OA
BRANCH   6  12
ATOM     12  O   UNL     1     -11.904   9.425   2.769  1.00  0.00    -0.373 OA
ATOM     13  H   UNL     1     -12.444   8.613   2.667  1.00  0.00     0.213 HD
ENDBRANCH   6  12
BRANCH   7  14
ATOM     14  C   UNL     1      -9.505  11.147   3.710  1.00  0.00     0.177 C 
BRANCH  14  15
ATOM     15  C   UNL     1      -9.939  11.989   2.494  1.00  0.00     0.038 C 
BRANCH  15  16
ATOM     16  C   UNL     1      -8.874  12.479   1.489  1.00  0.00    -0.015 C 
ATOM     17  C   UNL     1      -9.183  13.877   0.946  1.00  0.00     0.007 C 
ATOM     18  C   UNL     1      -8.796  11.509   0.302  1.00  0.00     0.007 C 
ENDBRANCH  15  16
ENDBRANCH  14  15
BRANCH  14  19
ATOM     19  C   UNL     1      -9.594  11.602   5.207  1.00  0.00     0.245 C 
ATOM     20  O   UNL     1     -10.632  12.193   5.551  1.00  0.00    -0.272 OA
BRANCH  19  21
ATOM     21  N   UNL     1      -8.555  11.482   6.113  1.00  0.00    -0.332 N 
ATOM     22  C   UNL     1      -8.060  10.235   6.667  1.00  0.00     0.147 C 
BRANCH  21  23
ATOM     23  C   UNL     1      -7.888  12.731   6.575  1.00  0.00     0.178 C 
BRANCH  23  24
ATOM     24  C   UNL     1      -7.809  13.850   5.517  1.00  0.00     0.070 C 
BRANCH  24  25
ATOM     25  C   UNL     1      -6.869  13.633   4.354  1.00  0.00    -0.045 A 
ATOM     26  C   UNL     1      -6.565  14.678   3.473  1.00  0.00     0.004 A 
ATOM     27  C   UNL     1      -6.289  12.374   4.139  1.00  0.00     0.004 A 
ATOM     28  C   UNL     1      -5.708  14.465   2.391  1.00  0.00     0.000 A 
ATOM     29  C   UNL     1      -5.432  12.163   3.058  1.00  0.00     0.000 A 
ATOM     30  C   UNL     1      -5.144  13.208   2.183  1.00  0.00     0.000 A 
ENDBRANCH  24  25
ENDBRANCH  23  24
BRANCH  23  31
ATOM     31  C   UNL     1      -8.366  13.189   7.974  1.00  0.00     0.243 C 
ATOM     32  O   UNL     1      -9.182  12.574   8.656  1.00  0.00    -0.273 OA
ATOM     33  N   UNL     1      -7.933  14.458   8.318  1.00  0.00    -0.341 N 
ATOM     34  H   UNL     1      -7.258  14.923   7.706  1.00  0.00     0.164 HD
BRANCH  33  35
ATOM     35  C   UNL     1      -8.359  15.143   9.542  1.00  0.00     0.194 C 
BRANCH  35  36
ATOM     36  C   UNL     1      -9.083  16.496   9.293  1.00  0.00     0.017 C 
ATOM     37  C   UNL     1      -9.579  17.116  10.611  1.00  0.00     0.010 C 
ATOM     38  C   UNL     1     -10.293  16.372   8.360  1.00  0.00     0.010 C 
ENDBRANCH  35  36
BRANCH  35  39
ATOM     39  C   UNL     1      -7.211  15.281  10.580  1.00  0.00     0.329 C 
ATOM     40  O   UNL     1      -7.170  14.671  11.642  1.00  0.00    -0.250 OA
BRANCH  39  41
ATOM     41  O   UNL     1      -6.205  16.094  10.137  1.00  0.00    -0.458 OA
BRANCH  41  42
ATOM     42  C   UNL     1      -5.832  17.186  11.011  1.00  0.00     0.205 CG0
ATOM     43  C   UNL     1      -4.397  16.934  11.468  1.00  0.00     0.056 C 
ATOM     44  G   UNL     1      -6.826  17.235  12.189  1.00  0.00     0.000 G0
ENDBRANCH  41  42
ENDBRANCH  39  41
ENDBRANCH  35  39
ENDBRANCH  33  35
ENDBRANCH  23  31
ENDBRANCH  21  23
ENDBRANCH  19  21
ENDBRANCH  14  19
ENDBRANCH   7  14
ENDBRANCH   2   5
BRANCH   3  45
ATOM     45  C   UNL     1      -7.519   5.573  -0.043  1.00  0.00     0.171 C 
BRANCH  45  46
ATOM     46  N   UNL     1      -6.885   4.262  -0.020  1.00  0.00    -0.342 N 
ATOM     47  C   UNL     1      -7.184   3.283  -0.934  1.00  0.00     0.247 C 
ATOM     48  O   UNL     1      -7.953   3.464  -1.879  1.00  0.00    -0.273 OA
ATOM     49  H   UNL     1      -6.199   4.089   0.713  1.00  0.00     0.164 HD
BRANCH  47  50
ATOM     50  C   UNL     1      -6.511   1.927  -0.679  1.00  0.00     0.212 CG0
ATOM     51  G   UNL     1      -5.466   1.708  -1.791  1.00  0.00     0.000 G0
BRANCH  50  52
ATOM     52  N   UNL     1      -5.923   2.029   0.654  1.00  0.00    -0.339 N 
ATOM     53  C   UNL     1      -6.358   1.295   1.731  1.00  0.00     0.243 C 
ATOM     54  O   UNL     1      -7.317   0.530   1.666  1.00  0.00    -0.273 OA
ATOM     55  H   UNL     1      -5.196   2.728   0.798  1.00  0.00     0.164 HD
BRANCH  53  56
ATOM     56  C   UNL     1      -5.642   1.636   3.053  1.00  0.00     0.182 C 
BRANCH  56  57
ATOM     57  N   UNL     1      -6.468   2.516   3.887  1.00  0.00    -0.344 N 
ATOM     58  C   UNL     1      -7.249   2.039   4.911  1.00  0.00     0.220 C 
ATOM     59  O   UNL     1      -7.368   0.842   5.153  1.00  0.00    -0.275 OA
ATOM     60  H   UNL     1      -6.321   3.517   3.787  1.00  0.00     0.164 HD
BRANCH  58  61
ATOM     61  C   UNL     1      -7.971   3.132   5.677  1.00  0.00     0.100 C 
BRANCH  61  62
ATOM     62  C   UNL     1      -9.007   3.886   4.843  1.00  0.00     0.010 C 
BRANCH  62  63
ATOM     63  C   UNL     1     -10.455   3.441   5.088  1.00  0.00     0.000 C 
BRANCH  63  64
ATOM     64  C   UNL     1     -10.921   3.595   6.535  1.00  0.00    -0.003 C 
ATOM     65  C   UNL     1     -11.688   4.894   6.736  1.00  0.00     0.004 C 
ENDBRANCH  63  64
ENDBRANCH  62  63
ENDBRANCH  61  62
ENDBRANCH  58  61
ENDBRANCH  56  57
BRANCH  56  66
ATOM     66  C   UNL     1      -4.251   2.217   2.804  1.00  0.00     0.157 C 
BRANCH  66  67
ATOM     67  C   UNL     1      -4.195   3.671   3.176  1.00  0.00     0.305 C 
ATOM     68  O   UNL     1      -3.794   4.143   4.229  1.00  0.00    -0.252 OA
BRANCH  67  69
ATOM     69  O   UNL     1      -4.601   4.472   2.172  1.00  0.00    -0.481 OA
ATOM     70  H   UNL     1      -4.148   5.326   2.335  1.00  0.00     0.296 HD
ENDBRANCH  67  69
ENDBRANCH  66  67
ENDBRANCH  56  66
ENDBRANCH  53  56
ENDBRANCH  50  52
ENDBRANCH  47  50
ENDBRANCH  45  46
BRANCH  45  71
ATOM     71  C   UNL     1      -6.584   6.644  -0.615  1.00  0.00     0.037 C 
BRANCH  71  72
ATOM     72  C   UNL     1      -5.621   7.191   0.441  1.00  0.00     0.026 C 
BRANCH  72  73
ATOM     73  C   UNL     1      -4.460   7.951  -0.199  1.00  0.00     0.146 C 
BRANCH  73  74
ATOM     74  N   UNL     1      -4.721   8.040  -1.632  1.00  0.00    -0.254 NA
ATOM     75  C   UNL     1      -3.716   8.000  -2.427  1.00  0.00     0.185 C 
ATOM     76  N   UNL     1      -3.923   8.078  -3.752  1.00  0.00    -0.370 N 
ATOM     77  N   UNL     1      -2.409   7.885  -2.132  1.00  0.00    -0.370 N 
ATOM     78  H   UNL     1      -4.880   8.174  -4.060  1.00  0.00     0.159 HD
ATOM     79  H   UNL     1      -3.185   8.198  -4.422  1.00  0.00     0.159 HD
ATOM     80  H   UNL     1      -2.103   7.812  -1.174  1.00  0.00     0.159 HD
ATOM     81  H   UNL     1      -1.716   7.747  -2.849  1.00  0.00     0.159 HD
ENDBRANCH  73  74
ENDBRANCH  72  73
ENDBRANCH  71  72
ENDBRANCH  45  71
ENDBRANCH   3  45
TORSDOF 20
ENDMDL
MODEL 43
REMARK VINA RESULT:    -5.735      2.792     16.216
REMARK INTER + INTRA:         -22.173
REMARK INTER:                 -18.836
REMARK INTRA:                  -3.337
REMARK UNBOUND:                -5.711
REMARK SMILES CCCCCC(=O)N[C@H](CC(=O)O)C(=O)N[C@H]1C(=O)N[C@H](CCCN=C(N)N)C(=O)N[C@@H]2CC[C@H](O)N(C2=O)[C@@H](CC(C)C)C(=O)N(C)[C@@H](Cc2ccccc2)C(=O)N[C@H](C(C)C)C(=O)O[C@@H]1C
REMARK SMILES IDX 30 1 31 2 29 3 32 5 35 6 37 7 34 8 38 9 33 10 39 11 36 12
REMARK SMILES IDX 40 14 41 15 42 16 43 17 44 18 45 19 46 20 47 21 48 22 49 23
REMARK SMILES IDX 50 24 51 25 52 26 56 27 53 28 55 29 54 30 57 31 58 32 59 33
REMARK SMILES IDX 60 35 61 36 62 37 63 38 64 39 65 40 66 41 67 42 68 43 21 45
REMARK SMILES IDX 20 46 18 47 19 48 17 50 16 52 14 53 15 54 9 56 8 57 6 58
REMARK SMILES IDX 7 59 5 61 4 62 3 63 2 64 1 65 10 66 11 67 12 68 13 69 22 71
REMARK SMILES IDX 23 72 24 73 25 74 26 75 27 76 28 77
REMARK H PARENT 31 4 36 13 59 34 20 49 16 55 8 60 13 70 27 78 27 79 28 80
REMARK H PARENT 28 81
REMARK Flexibility Score:  259.900
ROOT
ATOM      1  O   UNL     1      -6.326  11.741  -0.819  1.00  0.00    -0.273 OA
ATOM      2  N   UNL     1      -4.284  10.757  -0.517  1.00  0.00    -0.343 N 
ATOM      3  C   UNL     1      -5.390  11.450  -0.074  1.00  0.00     0.243 C 
ATOM      4  H   UNL     1      -3.539  10.522   0.128  1.00  0.00     0.164 HD
ENDROOT
BRANCH   2   5
ATOM      5  C   UNL     1      -4.124  10.440  -1.932  1.00  0.00     0.171 C 
ATOM      6  C   UNL     1      -2.343   8.648  -3.355  1.00  0.00     0.214 C 
ATOM      7  N   UNL     1      -1.947  10.020  -3.139  1.00  0.00    -0.303 N 
ATOM      8  C   UNL     1      -3.849   8.468  -3.467  1.00  0.00     0.057 C 
ATOM      9  C   UNL     1      -2.726  10.915  -2.424  1.00  0.00     0.247 C 
ATOM     10  C   UNL     1      -4.523   8.993  -2.219  1.00  0.00     0.040 C 
ATOM     11  O   UNL     1      -2.341  12.063  -2.169  1.00  0.00    -0.272 OA
BRANCH   6  12
ATOM     12  O   UNL     1      -1.834   7.880  -2.289  1.00  0.00    -0.373 OA
ATOM     13  H   UNL     1      -2.312   7.024  -2.297  1.00  0.00     0.213 HD
ENDBRANCH   6  12
BRANCH   7  14
ATOM     14  C   UNL     1      -0.592  10.405  -3.589  1.00  0.00     0.177 C 
BRANCH  14  15
ATOM     15  C   UNL     1       0.458   9.279  -3.546  1.00  0.00     0.038 C 
BRANCH  15  16
ATOM     16  C   UNL     1       1.942   9.612  -3.816  1.00  0.00    -0.015 C 
ATOM     17  C   UNL     1       2.432   9.052  -5.155  1.00  0.00     0.007 C 
ATOM     18  C   UNL     1       2.817   9.025  -2.702  1.00  0.00     0.007 C 
ENDBRANCH  15  16
ENDBRANCH  14  15
BRANCH  14  19
ATOM     19  C   UNL     1      -0.681  11.521  -4.687  1.00  0.00     0.245 C 
ATOM     20  O   UNL     1      -1.820  11.873  -5.036  1.00  0.00    -0.272 OA
BRANCH  19  21
ATOM     21  N   UNL     1       0.417  12.038  -5.351  1.00  0.00    -0.332 N 
ATOM     22  C   UNL     1       1.529  12.732  -4.727  1.00  0.00     0.147 C 
BRANCH  21  23
ATOM     23  C   UNL     1       0.469  11.887  -6.832  1.00  0.00     0.178 C 
BRANCH  23  24
ATOM     24  C   UNL     1      -0.697  11.083  -7.440  1.00  0.00     0.070 C 
BRANCH  24  25
ATOM     25  C   UNL     1      -0.517   9.587  -7.553  1.00  0.00    -0.045 A 
ATOM     26  C   UNL     1      -1.365   8.708  -6.868  1.00  0.00     0.004 A 
ATOM     27  C   UNL     1       0.513   9.056  -8.345  1.00  0.00     0.004 A 
ATOM     28  C   UNL     1      -1.181   7.327  -6.964  1.00  0.00     0.000 A 
ATOM     29  C   UNL     1       0.695   7.676  -8.441  1.00  0.00     0.000 A 
ATOM     30  C   UNL     1      -0.151   6.812  -7.748  1.00  0.00     0.000 A 
ENDBRANCH  24  25
ENDBRANCH  23  24
BRANCH  23  31
ATOM     31  C   UNL     1       0.799  13.211  -7.562  1.00  0.00     0.243 C 
ATOM     32  O   UNL     1       0.195  14.265  -7.380  1.00  0.00    -0.273 OA
ATOM     33  N   UNL     1       1.721  13.064  -8.584  1.00  0.00    -0.341 N 
ATOM     34  H   UNL     1       2.187  12.160  -8.691  1.00  0.00     0.164 HD
BRANCH  33  35
ATOM     35  C   UNL     1       2.094  14.157  -9.486  1.00  0.00     0.194 C 
BRANCH  35  36
ATOM     36  C   UNL     1       1.135  14.337 -10.697  1.00  0.00     0.017 C 
ATOM     37  C   UNL     1       0.459  15.719 -10.674  1.00  0.00     0.010 C 
ATOM     38  C   UNL     1       0.023  13.283 -10.749  1.00  0.00     0.010 C 
ENDBRANCH  35  36
BRANCH  35  39
ATOM     39  C   UNL     1       3.582  14.083  -9.931  1.00  0.00     0.329 C 
ATOM     40  O   UNL     1       4.365  15.023  -9.864  1.00  0.00    -0.250 OA
BRANCH  39  41
ATOM     41  O   UNL     1       3.945  12.825 -10.324  1.00  0.00    -0.458 OA
BRANCH  41  42
ATOM     42  C   UNL     1       4.915  12.744 -11.396  1.00  0.00     0.205 CG0
ATOM     43  C   UNL     1       4.986  11.282 -11.834  1.00  0.00     0.056 C 
ATOM     44  G   UNL     1       6.267  13.270 -10.877  1.00  0.00     0.000 G0
ENDBRANCH  41  42
ENDBRANCH  39  41
ENDBRANCH  35  39
ENDBRANCH  33  35
ENDBRANCH  23  31
ENDBRANCH  21  23
ENDBRANCH  19  21
ENDBRANCH  14  19
ENDBRANCH   7  14
ENDBRANCH   2   5
BRANCH   3  45
ATOM     45  C   UNL     1      -5.383  11.815   1.417  1.00  0.00     0.171 C 
BRANCH  45  46
ATOM     46  N   UNL     1      -6.747  11.602   1.881  1.00  0.00    -0.342 N 
ATOM     47  C   UNL     1      -7.042  11.297   3.185  1.00  0.00     0.247 C 
ATOM     48  O   UNL     1      -6.187  11.253   4.071  1.00  0.00    -0.273 OA
ATOM     49  H   UNL     1      -7.492  11.685   1.191  1.00  0.00     0.164 HD
BRANCH  47  50
ATOM     50  C   UNL     1      -8.520  10.985   3.462  1.00  0.00     0.212 CG0
ATOM     51  G   UNL     1      -8.611   9.512   3.907  1.00  0.00     0.000 G0
BRANCH  50  52
ATOM     52  N   UNL     1      -8.929  11.927   4.500  1.00  0.00    -0.339 N 
ATOM     53  C   UNL     1      -9.510  13.143   4.231  1.00  0.00     0.243 C 
ATOM     54  O   UNL     1      -9.681  13.556   3.087  1.00  0.00    -0.273 OA
ATOM     55  H   UNL     1      -8.712  11.691   5.466  1.00  0.00     0.164 HD
BRANCH  53  56
ATOM     56  C   UNL     1      -9.776  14.003   5.483  1.00  0.00     0.182 C 
BRANCH  56  57
ATOM     57  N   UNL     1      -8.855  13.650   6.569  1.00  0.00    -0.344 N 
ATOM     58  C   UNL     1      -8.655  14.464   7.657  1.00  0.00     0.220 C 
ATOM     59  O   UNL     1      -9.173  15.570   7.762  1.00  0.00    -0.275 OA
ATOM     60  H   UNL     1      -8.486  12.703   6.570  1.00  0.00     0.164 HD
BRANCH  58  61
ATOM     61  C   UNL     1      -7.706  13.873   8.683  1.00  0.00     0.100 C 
BRANCH  61  62
ATOM     62  C   UNL     1      -8.242  13.914  10.114  1.00  0.00     0.010 C 
BRANCH  62  63
ATOM     63  C   UNL     1      -7.513  14.906  11.029  1.00  0.00     0.000 C 
BRANCH  63  64
ATOM     64  C   UNL     1      -8.236  16.239  11.212  1.00  0.00    -0.003 C 
ATOM     65  C   UNL     1      -7.629  17.325  10.336  1.00  0.00     0.004 C 
ENDBRANCH  63  64
ENDBRANCH  62  63
ENDBRANCH  61  62
ENDBRANCH  58  61
ENDBRANCH  56  57
BRANCH  56  66
ATOM     66  C   UNL     1     -11.238  13.922   5.918  1.00  0.00     0.157 C 
BRANCH  66  67
ATOM     67  C   UNL     1     -11.812  12.561   5.644  1.00  0.00     0.305 C 
ATOM     68  O   UNL     1     -12.557  12.251   4.727  1.00  0.00    -0.252 OA
BRANCH  67  69
ATOM     69  O   UNL     1     -11.374  11.636   6.519  1.00  0.00    -0.481 OA
ATOM     70  H   UNL     1     -10.586  12.041   6.938  1.00  0.00     0.296 HD
ENDBRANCH  67  69
ENDBRANCH  66  67
ENDBRANCH  56  66
ENDBRANCH  53  56
ENDBRANCH  50  52
ENDBRANCH  47  50
ENDBRANCH  45  46
BRANCH  45  71
ATOM     71  C   UNL     1      -4.941  13.270   1.608  1.00  0.00     0.037 C 
BRANCH  71  72
ATOM     72  C   UNL     1      -5.927  14.259   0.980  1.00  0.00     0.026 C 
BRANCH  72  73
ATOM     73  C   UNL     1      -5.200  15.396   0.264  1.00  0.00     0.146 C 
BRANCH  73  74
ATOM     74  N   UNL     1      -5.069  15.027  -1.142  1.00  0.00    -0.254 NA
ATOM     75  C   UNL     1      -3.887  14.879  -1.615  1.00  0.00     0.185 C 
ATOM     76  N   UNL     1      -3.734  14.539  -2.905  1.00  0.00    -0.370 N 
ATOM     77  N   UNL     1      -2.704  15.016  -0.991  1.00  0.00    -0.370 N 
ATOM     78  H   UNL     1      -4.576  14.423  -3.451  1.00  0.00     0.159 HD
ATOM     79  H   UNL     1      -2.848  14.547  -3.379  1.00  0.00     0.159 HD
ATOM     80  H   UNL     1      -2.665  15.266  -0.015  1.00  0.00     0.159 HD
ATOM     81  H   UNL     1      -1.839  14.761  -1.437  1.00  0.00     0.159 HD
ENDBRANCH  73  74
ENDBRANCH  72  73
ENDBRANCH  71  72
ENDBRANCH  45  71
ENDBRANCH   3  45
TORSDOF 20
ENDMDL
MODEL 44
REMARK VINA RESULT:    -5.727     11.472     16.550
REMARK INTER + INTRA:         -22.151
REMARK INTER:                 -18.911
REMARK INTRA:                  -3.239
REMARK UNBOUND:                -5.711
REMARK SMILES CCCCCC(=O)N[C@H](CC(=O)O)C(=O)N[C@H]1C(=O)N[C@H](CCCN=C(N)N)C(=O)N[C@@H]2CC[C@H](O)N(C2=O)[C@@H](CC(C)C)C(=O)N(C)[C@@H](Cc2ccccc2)C(=O)N[C@H](C(C)C)C(=O)O[C@@H]1C
REMARK SMILES IDX 30 1 31 2 29 3 32 5 35 6 37 7 34 8 38 9 33 10 39 11 36 12
REMARK SMILES IDX 40 14 41 15 42 16 43 17 44 18 45 19 46 20 47 21 48 22 49 23
REMARK SMILES IDX 50 24 51 25 52 26 56 27 53 28 55 29 54 30 57 31 58 32 59 33
REMARK SMILES IDX 60 35 61 36 62 37 63 38 64 39 65 40 66 41 67 42 68 43 21 45
REMARK SMILES IDX 20 46 18 47 19 48 17 50 16 52 14 53 15 54 9 56 8 57 6 58
REMARK SMILES IDX 7 59 5 61 4 62 3 63 2 64 1 65 10 66 11 67 12 68 13 69 22 71
REMARK SMILES IDX 23 72 24 73 25 74 26 75 27 76 28 77
REMARK H PARENT 31 4 36 13 59 34 20 49 16 55 8 60 13 70 27 78 27 79 28 80
REMARK H PARENT 28 81
REMARK Flexibility Score:  259.900
ROOT
ATOM      1  O   UNL     1      -3.558   2.645  -3.992  1.00  0.00    -0.273 OA
ATOM      2  N   UNL     1      -5.208   1.150  -4.515  1.00  0.00    -0.343 N 
ATOM      3  C   UNL     1      -4.611   2.391  -4.577  1.00  0.00     0.243 C 
ATOM      4  H   UNL     1      -6.067   0.973  -5.022  1.00  0.00     0.164 HD
ENDROOT
BRANCH   2   5
ATOM      5  C   UNL     1      -4.670   0.109  -3.646  1.00  0.00     0.171 C 
ATOM      6  C   UNL     1      -4.818  -2.785  -3.721  1.00  0.00     0.214 C 
ATOM      7  N   UNL     1      -5.817  -2.041  -2.990  1.00  0.00    -0.303 N 
ATOM      8  C   UNL     1      -3.464  -2.094  -3.762  1.00  0.00     0.057 C 
ATOM      9  C   UNL     1      -5.834  -0.656  -2.955  1.00  0.00     0.247 C 
ATOM     10  C   UNL     1      -3.609  -0.717  -4.372  1.00  0.00     0.040 C 
ATOM     11  O   UNL     1      -6.743  -0.025  -2.399  1.00  0.00    -0.272 OA
BRANCH   6  12
ATOM     12  O   UNL     1      -5.305  -2.991  -5.027  1.00  0.00    -0.373 OA
ATOM     13  H   UNL     1      -5.413  -2.106  -5.437  1.00  0.00     0.213 HD
ENDBRANCH   6  12
BRANCH   7  14
ATOM     14  C   UNL     1      -6.924  -2.816  -2.390  1.00  0.00     0.177 C 
BRANCH  14  15
ATOM     15  C   UNL     1      -8.316  -2.163  -2.497  1.00  0.00     0.038 C 
BRANCH  15  16
ATOM     16  C   UNL     1      -9.391  -2.485  -1.436  1.00  0.00    -0.015 C 
ATOM     17  C   UNL     1     -10.379  -3.554  -1.911  1.00  0.00     0.007 C 
ATOM     18  C   UNL     1     -10.183  -1.216  -1.098  1.00  0.00     0.007 C 
ENDBRANCH  15  16
ENDBRANCH  14  15
BRANCH  14  19
ATOM     19  C   UNL     1      -6.633  -4.353  -2.498  1.00  0.00     0.245 C 
ATOM     20  O   UNL     1      -7.234  -4.975  -3.390  1.00  0.00    -0.272 OA
BRANCH  19  21
ATOM     21  N   UNL     1      -5.847  -5.053  -1.600  1.00  0.00    -0.332 N 
ATOM     22  C   UNL     1      -5.651  -4.709  -0.203  1.00  0.00     0.147 C 
BRANCH  21  23
ATOM     23  C   UNL     1      -5.127  -6.258  -2.098  1.00  0.00     0.178 C 
BRANCH  23  24
ATOM     24  C   UNL     1      -3.589  -6.134  -2.106  1.00  0.00     0.070 C 
BRANCH  24  25
ATOM     25  C   UNL     1      -2.883  -6.407  -3.413  1.00  0.00    -0.045 A 
ATOM     26  C   UNL     1      -3.119  -7.592  -4.122  1.00  0.00     0.004 A 
ATOM     27  C   UNL     1      -1.973  -5.475  -3.934  1.00  0.00     0.004 A 
ATOM     28  C   UNL     1      -2.449  -7.845  -5.321  1.00  0.00     0.000 A 
ATOM     29  C   UNL     1      -1.305  -5.729  -5.133  1.00  0.00     0.000 A 
ATOM     30  C   UNL     1      -1.542  -6.915  -5.825  1.00  0.00     0.000 A 
ENDBRANCH  24  25
ENDBRANCH  23  24
BRANCH  23  31
ATOM     31  C   UNL     1      -5.671  -7.577  -1.500  1.00  0.00     0.243 C 
ATOM     32  O   UNL     1      -4.962  -8.456  -1.017  1.00  0.00    -0.273 OA
ATOM     33  N   UNL     1      -7.024  -7.769  -1.724  1.00  0.00    -0.341 N 
ATOM     34  H   UNL     1      -7.561  -7.002  -2.136  1.00  0.00     0.164 HD
BRANCH  33  35
ATOM     35  C   UNL     1      -7.728  -8.999  -1.351  1.00  0.00     0.194 C 
BRANCH  35  36
ATOM     36  C   UNL     1      -7.526  -9.423   0.131  1.00  0.00     0.017 C 
ATOM     37  C   UNL     1      -8.432 -10.609   0.502  1.00  0.00     0.010 C 
ATOM     38  C   UNL     1      -7.816  -8.294   1.127  1.00  0.00     0.010 C 
ENDBRANCH  35  36
BRANCH  35  39
ATOM     39  C   UNL     1      -7.446 -10.170  -2.334  1.00  0.00     0.329 C 
ATOM     40  O   UNL     1      -6.474 -10.912  -2.256  1.00  0.00    -0.250 OA
BRANCH  39  41
ATOM     41  O   UNL     1      -8.452 -10.337  -3.246  1.00  0.00    -0.458 OA
BRANCH  41  42
ATOM     42  C   UNL     1      -9.180 -11.586  -3.175  1.00  0.00     0.205 CG0
ATOM     43  C   UNL     1     -10.647 -11.242  -2.920  1.00  0.00     0.056 C 
ATOM     44  G   UNL     1      -8.572 -12.447  -2.050  1.00  0.00     0.000 G0
ENDBRANCH  41  42
ENDBRANCH  39  41
ENDBRANCH  35  39
ENDBRANCH  33  35
ENDBRANCH  23  31
ENDBRANCH  21  23
ENDBRANCH  19  21
ENDBRANCH  14  19
ENDBRANCH   7  14
ENDBRANCH   2   5
BRANCH   3  45
ATOM     45  C   UNL     1      -5.339   3.427  -5.443  1.00  0.00     0.171 C 
BRANCH  45  46
ATOM     46  N   UNL     1      -4.532   4.638  -5.371  1.00  0.00    -0.342 N 
ATOM     47  C   UNL     1      -4.386   5.490  -6.437  1.00  0.00     0.247 C 
ATOM     48  O   UNL     1      -4.982   5.335  -7.503  1.00  0.00    -0.273 OA
ATOM     49  H   UNL     1      -4.065   4.834  -4.487  1.00  0.00     0.164 HD
BRANCH  47  50
ATOM     50  C   UNL     1      -3.399   6.645  -6.215  1.00  0.00     0.212 CG0
ATOM     51  G   UNL     1      -3.625   7.675  -7.339  1.00  0.00     0.000 G0
BRANCH  50  52
ATOM     52  N   UNL     1      -3.702   7.166  -4.885  1.00  0.00    -0.339 N 
ATOM     53  C   UNL     1      -2.966   8.152  -4.274  1.00  0.00     0.243 C 
ATOM     54  O   UNL     1      -1.958   8.637  -4.781  1.00  0.00    -0.273 OA
ATOM     55  H   UNL     1      -4.459   6.727  -4.366  1.00  0.00     0.164 HD
BRANCH  53  56
ATOM     56  C   UNL     1      -3.423   8.478  -2.837  1.00  0.00     0.182 C 
BRANCH  56  57
ATOM     57  N   UNL     1      -4.676   9.239  -2.843  1.00  0.00    -0.344 N 
ATOM     58  C   UNL     1      -5.631   9.093  -1.867  1.00  0.00     0.220 C 
ATOM     59  O   UNL     1      -5.538   8.266  -0.966  1.00  0.00    -0.275 OA
ATOM     60  H   UNL     1      -4.748  10.003  -3.511  1.00  0.00     0.164 HD
BRANCH  58  61
ATOM     61  C   UNL     1      -6.818  10.023  -2.042  1.00  0.00     0.100 C 
BRANCH  61  62
ATOM     62  C   UNL     1      -6.826  11.202  -1.069  1.00  0.00     0.010 C 
BRANCH  62  63
ATOM     63  C   UNL     1      -8.228  11.687  -0.683  1.00  0.00     0.000 C 
BRANCH  63  64
ATOM     64  C   UNL     1      -8.276  12.504   0.608  1.00  0.00    -0.003 C 
ATOM     65  C   UNL     1      -8.837  13.897   0.362  1.00  0.00     0.004 C 
ENDBRANCH  63  64
ENDBRANCH  62  63
ENDBRANCH  61  62
ENDBRANCH  58  61
ENDBRANCH  56  57
BRANCH  56  66
ATOM     66  C   UNL     1      -2.323   9.183  -2.046  1.00  0.00     0.157 C 
BRANCH  66  67
ATOM     67  C   UNL     1      -1.701   8.261  -1.038  1.00  0.00     0.305 C 
ATOM     68  O   UNL     1      -0.535   7.898  -0.998  1.00  0.00    -0.252 OA
BRANCH  67  69
ATOM     69  O   UNL     1      -2.575   7.876  -0.088  1.00  0.00    -0.481 OA
ATOM     70  H   UNL     1      -3.282   8.556  -0.109  1.00  0.00     0.296 HD
ENDBRANCH  67  69
ENDBRANCH  66  67
ENDBRANCH  56  66
ENDBRANCH  53  56
ENDBRANCH  50  52
ENDBRANCH  47  50
ENDBRANCH  45  46
BRANCH  45  71
ATOM     71  C   UNL     1      -6.759   3.662  -4.915  1.00  0.00     0.037 C 
BRANCH  71  72
ATOM     72  C   UNL     1      -7.784   3.767  -6.046  1.00  0.00     0.026 C 
BRANCH  72  73
ATOM     73  C   UNL     1      -9.193   3.434  -5.558  1.00  0.00     0.146 C 
BRANCH  73  74
ATOM     74  N   UNL     1      -9.684   2.307  -6.345  1.00  0.00    -0.254 NA
ATOM     75  C   UNL     1     -10.587   2.538  -7.224  1.00  0.00     0.185 C 
ATOM     76  N   UNL     1     -11.058   1.521  -7.964  1.00  0.00    -0.370 N 
ATOM     77  N   UNL     1     -11.175   3.704  -7.545  1.00  0.00    -0.370 N 
ATOM     78  H   UNL     1     -10.674   0.606  -7.781  1.00  0.00     0.159 HD
ATOM     79  H   UNL     1     -11.860   1.599  -8.564  1.00  0.00     0.159 HD
ATOM     80  H   UNL     1     -10.917   4.557  -7.072  1.00  0.00     0.159 HD
ATOM     81  H   UNL     1     -11.792   3.784  -8.336  1.00  0.00     0.159 HD
ENDBRANCH  73  74
ENDBRANCH  72  73
ENDBRANCH  71  72
ENDBRANCH  45  71
ENDBRANCH   3  45
TORSDOF 20
ENDMDL
MODEL 45
REMARK VINA RESULT:    -5.723     10.641     16.733
REMARK INTER + INTRA:         -22.140
REMARK INTER:                 -16.018
REMARK INTRA:                  -6.121
REMARK UNBOUND:                -5.711
REMARK SMILES CCCCCC(=O)N[C@H](CC(=O)O)C(=O)N[C@H]1C(=O)N[C@H](CCCN=C(N)N)C(=O)N[C@@H]2CC[C@H](O)N(C2=O)[C@@H](CC(C)C)C(=O)N(C)[C@@H](Cc2ccccc2)C(=O)N[C@H](C(C)C)C(=O)O[C@@H]1C
REMARK SMILES IDX 30 1 31 2 29 3 32 5 35 6 37 7 34 8 38 9 33 10 39 11 36 12
REMARK SMILES IDX 40 14 41 15 42 16 43 17 44 18 45 19 46 20 47 21 48 22 49 23
REMARK SMILES IDX 50 24 51 25 52 26 56 27 53 28 55 29 54 30 57 31 58 32 59 33
REMARK SMILES IDX 60 35 61 36 62 37 63 38 64 39 65 40 66 41 67 42 68 43 21 45
REMARK SMILES IDX 20 46 18 47 19 48 17 50 16 52 14 53 15 54 9 56 8 57 6 58
REMARK SMILES IDX 7 59 5 61 4 62 3 63 2 64 1 65 10 66 11 67 12 68 13 69 22 71
REMARK SMILES IDX 23 72 24 73 25 74 26 75 27 76 28 77
REMARK H PARENT 31 4 36 13 59 34 20 49 16 55 8 60 13 70 27 78 27 79 28 80
REMARK H PARENT 28 81
REMARK Flexibility Score:  259.900
ROOT
ATOM      1  O   UNL     1      -4.734  -4.003  -2.522  1.00  0.00    -0.273 OA
ATOM      2  N   UNL     1      -4.875  -2.199  -3.921  1.00  0.00    -0.343 N 
ATOM      3  C   UNL     1      -4.291  -3.367  -3.479  1.00  0.00     0.243 C 
ATOM      4  H   UNL     1      -4.491  -1.710  -4.720  1.00  0.00     0.164 HD
ENDROOT
BRANCH   2   5
ATOM      5  C   UNL     1      -5.985  -1.601  -3.189  1.00  0.00     0.171 C 
ATOM      6  C   UNL     1      -7.733   0.642  -3.758  1.00  0.00     0.214 C 
ATOM      7  N   UNL     1      -6.515   0.861  -3.014  1.00  0.00    -0.303 N 
ATOM      8  C   UNL     1      -8.322  -0.745  -3.552  1.00  0.00     0.057 C 
ATOM      9  C   UNL     1      -5.611  -0.156  -2.751  1.00  0.00     0.247 C 
ATOM     10  C   UNL     1      -7.304  -1.797  -3.936  1.00  0.00     0.040 C 
ATOM     11  O   UNL     1      -4.529   0.057  -2.189  1.00  0.00    -0.272 OA
BRANCH   6  12
ATOM     12  O   UNL     1      -7.449   0.859  -5.121  1.00  0.00    -0.373 OA
ATOM     13  H   UNL     1      -6.846   0.140  -5.407  1.00  0.00     0.213 HD
ENDBRANCH   6  12
BRANCH   7  14
ATOM     14  C   UNL     1      -6.187   2.259  -2.661  1.00  0.00     0.177 C 
BRANCH  14  15
ATOM     15  C   UNL     1      -5.291   2.999  -3.673  1.00  0.00     0.038 C 
BRANCH  15  16
ATOM     16  C   UNL     1      -5.867   3.403  -5.048  1.00  0.00    -0.015 C 
ATOM     17  C   UNL     1      -5.058   2.826  -6.213  1.00  0.00     0.007 C 
ATOM     18  C   UNL     1      -5.874   4.931  -5.178  1.00  0.00     0.007 C 
ENDBRANCH  15  16
ENDBRANCH  14  15
BRANCH  14  19
ATOM     19  C   UNL     1      -7.364   2.905  -1.851  1.00  0.00     0.245 C 
ATOM     20  O   UNL     1      -7.932   2.181  -1.016  1.00  0.00    -0.272 OA
BRANCH  19  21
ATOM     21  N   UNL     1      -7.862   4.173  -2.093  1.00  0.00    -0.332 N 
ATOM     22  C   UNL     1      -8.827   4.516  -3.122  1.00  0.00     0.147 C 
BRANCH  21  23
ATOM     23  C   UNL     1      -7.369   5.289  -1.240  1.00  0.00     0.178 C 
BRANCH  23  24
ATOM     24  C   UNL     1      -6.876   6.526  -2.018  1.00  0.00     0.070 C 
BRANCH  24  25
ATOM     25  C   UNL     1      -5.491   7.037  -1.692  1.00  0.00    -0.045 A 
ATOM     26  C   UNL     1      -5.061   7.147  -0.364  1.00  0.00     0.004 A 
ATOM     27  C   UNL     1      -4.616   7.414  -2.722  1.00  0.00     0.004 A 
ATOM     28  C   UNL     1      -3.786   7.636  -0.071  1.00  0.00     0.000 A 
ATOM     29  C   UNL     1      -3.342   7.902  -2.428  1.00  0.00     0.000 A 
ATOM     30  C   UNL     1      -2.929   8.015  -1.102  1.00  0.00     0.000 A 
ENDBRANCH  24  25
ENDBRANCH  23  24
BRANCH  23  31
ATOM     31  C   UNL     1      -8.307   5.599  -0.049  1.00  0.00     0.243 C 
ATOM     32  O   UNL     1      -8.387   4.906   0.962  1.00  0.00    -0.273 OA
ATOM     33  N   UNL     1      -9.194   6.633  -0.299  1.00  0.00    -0.341 N 
ATOM     34  H   UNL     1      -9.082   7.171  -1.161  1.00  0.00     0.164 HD
BRANCH  33  35
ATOM     35  C   UNL     1     -10.251   7.022   0.638  1.00  0.00     0.194 C 
BRANCH  35  36
ATOM     36  C   UNL     1     -11.685   6.644   0.171  1.00  0.00     0.017 C 
ATOM     37  C   UNL     1     -12.501   6.020   1.316  1.00  0.00     0.010 C 
ATOM     38  C   UNL     1     -11.697   5.649  -0.996  1.00  0.00     0.010 C 
ENDBRANCH  35  36
BRANCH  35  39
ATOM     39  C   UNL     1     -10.154   8.514   1.064  1.00  0.00     0.329 C 
ATOM     40  O   UNL     1     -10.007   8.889   2.221  1.00  0.00    -0.250 OA
BRANCH  39  41
ATOM     41  O   UNL     1     -10.164   9.362  -0.009  1.00  0.00    -0.458 OA
BRANCH  41  42
ATOM     42  C   UNL     1      -9.185  10.428   0.007  1.00  0.00     0.205 CG0
ATOM     43  C   UNL     1      -7.837   9.812  -0.358  1.00  0.00     0.056 C 
ATOM     44  G   UNL     1      -9.180  11.070   1.409  1.00  0.00     0.000 G0
ENDBRANCH  41  42
ENDBRANCH  39  41
ENDBRANCH  35  39
ENDBRANCH  33  35
ENDBRANCH  23  31
ENDBRANCH  21  23
ENDBRANCH  19  21
ENDBRANCH  14  19
ENDBRANCH   7  14
ENDBRANCH   2   5
BRANCH   3  45
ATOM     45  C   UNL     1      -3.064  -3.831  -4.275  1.00  0.00     0.171 C 
BRANCH  45  46
ATOM     46  N   UNL     1      -3.014  -5.278  -4.115  1.00  0.00    -0.342 N 
ATOM     47  C   UNL     1      -2.287  -6.087  -4.952  1.00  0.00     0.247 C 
ATOM     48  O   UNL     1      -1.569  -5.646  -5.850  1.00  0.00    -0.273 OA
ATOM     49  H   UNL     1      -3.550  -5.680  -3.348  1.00  0.00     0.164 HD
BRANCH  47  50
ATOM     50  C   UNL     1      -2.454  -7.593  -4.706  1.00  0.00     0.212 CG0
ATOM     51  G   UNL     1      -1.045  -8.214  -4.635  1.00  0.00     0.000 G0
BRANCH  50  52
ATOM     52  N   UNL     1      -3.198  -7.704  -3.455  1.00  0.00    -0.339 N 
ATOM     53  C   UNL     1      -4.530  -8.035  -3.393  1.00  0.00     0.243 C 
ATOM     54  O   UNL     1      -5.215  -8.212  -4.397  1.00  0.00    -0.273 OA
ATOM     55  H   UNL     1      -2.713  -7.460  -2.593  1.00  0.00     0.164 HD
BRANCH  53  56
ATOM     56  C   UNL     1      -5.119  -8.006  -1.969  1.00  0.00     0.182 C 
BRANCH  56  57
ATOM     57  N   UNL     1      -6.044  -6.880  -1.805  1.00  0.00    -0.344 N 
ATOM     58  C   UNL     1      -7.377  -7.057  -1.523  1.00  0.00     0.220 C 
ATOM     59  O   UNL     1      -7.900  -8.164  -1.462  1.00  0.00    -0.275 OA
ATOM     60  H   UNL     1      -5.634  -5.951  -1.747  1.00  0.00     0.164 HD
BRANCH  58  61
ATOM     61  C   UNL     1      -8.131  -5.753  -1.338  1.00  0.00     0.100 C 
BRANCH  61  62
ATOM     62  C   UNL     1      -8.492  -5.451   0.117  1.00  0.00     0.010 C 
BRANCH  62  63
ATOM     63  C   UNL     1      -7.614  -6.177   1.144  1.00  0.00     0.000 C 
BRANCH  63  64
ATOM     64  C   UNL     1      -8.362  -7.200   1.997  1.00  0.00    -0.003 C 
ATOM     65  C   UNL     1      -9.765  -6.718   2.338  1.00  0.00     0.004 C 
ENDBRANCH  63  64
ENDBRANCH  62  63
ENDBRANCH  61  62
ENDBRANCH  58  61
ENDBRANCH  56  57
BRANCH  56  66
ATOM     66  C   UNL     1      -4.020  -8.008  -0.908  1.00  0.00     0.157 C 
BRANCH  66  67
ATOM     67  C   UNL     1      -3.898  -6.664  -0.248  1.00  0.00     0.305 C 
ATOM     68  O   UNL     1      -4.308  -6.351   0.859  1.00  0.00    -0.252 OA
BRANCH  67  69
ATOM     69  O   UNL     1      -3.211  -5.785  -1.002  1.00  0.00    -0.481 OA
ATOM     70  H   UNL     1      -2.268  -5.962  -0.797  1.00  0.00     0.296 HD
ENDBRANCH  67  69
ENDBRANCH  66  67
ENDBRANCH  56  66
ENDBRANCH  53  56
ENDBRANCH  50  52
ENDBRANCH  47  50
ENDBRANCH  45  46
BRANCH  45  71
ATOM     71  C   UNL     1      -1.795  -3.158  -3.739  1.00  0.00     0.037 C 
BRANCH  71  72
ATOM     72  C   UNL     1      -1.334  -2.004  -4.632  1.00  0.00     0.026 C 
BRANCH  72  73
ATOM     73  C   UNL     1      -1.626  -0.649  -3.991  1.00  0.00     0.146 C 
BRANCH  73  74
ATOM     74  N   UNL     1      -0.416  -0.212  -3.301  1.00  0.00    -0.254 NA
ATOM     75  C   UNL     1      -0.539   0.247  -2.110  1.00  0.00     0.185 C 
ATOM     76  N   UNL     1       0.555   0.656  -1.448  1.00  0.00    -0.370 N 
ATOM     77  N   UNL     1      -1.653   0.394  -1.372  1.00  0.00    -0.370 N 
ATOM     78  H   UNL     1       1.437   0.587  -1.935  1.00  0.00     0.159 HD
ATOM     79  H   UNL     1       0.521   1.157  -0.578  1.00  0.00     0.159 HD
ATOM     80  H   UNL     1      -2.553   0.124  -1.740  1.00  0.00     0.159 HD
ATOM     81  H   UNL     1      -1.613   0.660  -0.402  1.00  0.00     0.159 HD
ENDBRANCH  73  74
ENDBRANCH  72  73
ENDBRANCH  71  72
ENDBRANCH  45  71
ENDBRANCH   3  45
TORSDOF 20
ENDMDL
MODEL 46
REMARK VINA RESULT:    -5.714      8.951     14.951
REMARK INTER + INTRA:         -22.113
REMARK INTER:                 -15.678
REMARK INTRA:                  -6.435
REMARK UNBOUND:                -5.711
REMARK SMILES CCCCCC(=O)N[C@H](CC(=O)O)C(=O)N[C@H]1C(=O)N[C@H](CCCN=C(N)N)C(=O)N[C@@H]2CC[C@H](O)N(C2=O)[C@@H](CC(C)C)C(=O)N(C)[C@@H](Cc2ccccc2)C(=O)N[C@H](C(C)C)C(=O)O[C@@H]1C
REMARK SMILES IDX 30 1 31 2 29 3 32 5 35 6 37 7 34 8 38 9 33 10 39 11 36 12
REMARK SMILES IDX 40 14 41 15 42 16 43 17 44 18 45 19 46 20 47 21 48 22 49 23
REMARK SMILES IDX 50 24 51 25 52 26 56 27 53 28 55 29 54 30 57 31 58 32 59 33
REMARK SMILES IDX 60 35 61 36 62 37 63 38 64 39 65 40 66 41 67 42 68 43 21 45
REMARK SMILES IDX 20 46 18 47 19 48 17 50 16 52 14 53 15 54 9 56 8 57 6 58
REMARK SMILES IDX 7 59 5 61 4 62 3 63 2 64 1 65 10 66 11 67 12 68 13 69 22 71
REMARK SMILES IDX 23 72 24 73 25 74 26 75 27 76 28 77
REMARK H PARENT 31 4 36 13 59 34 20 49 16 55 8 60 13 70 27 78 27 79 28 80
REMARK H PARENT 28 81
REMARK Flexibility Score:  259.900
ROOT
ATOM      1  O   UNL     1      -7.624   0.355  -0.534  1.00  0.00    -0.273 OA
ATOM      2  N   UNL     1      -6.437   2.159  -1.287  1.00  0.00    -0.343 N 
ATOM      3  C   UNL     1      -6.582   0.819  -0.999  1.00  0.00     0.243 C 
ATOM      4  H   UNL     1      -5.571   2.504  -1.682  1.00  0.00     0.164 HD
ENDROOT
BRANCH   2   5
ATOM      5  C   UNL     1      -7.486   3.112  -0.938  1.00  0.00     0.171 C 
ATOM      6  C   UNL     1      -7.908   5.901  -1.605  1.00  0.00     0.214 C 
ATOM      7  N   UNL     1      -7.174   5.560  -0.409  1.00  0.00    -0.303 N 
ATOM      8  C   UNL     1      -8.953   4.865  -1.986  1.00  0.00     0.057 C 
ATOM      9  C   UNL     1      -6.893   4.250  -0.058  1.00  0.00     0.247 C 
ATOM     10  C   UNL     1      -8.293   3.515  -2.171  1.00  0.00     0.040 C 
ATOM     11  O   UNL     1      -6.190   3.969   0.922  1.00  0.00    -0.272 OA
BRANCH   6  12
ATOM     12  O   UNL     1      -6.976   6.068  -2.649  1.00  0.00    -0.373 OA
ATOM     13  H   UNL     1      -6.874   7.033  -2.792  1.00  0.00     0.213 HD
ENDBRANCH   6  12
BRANCH   7  14
ATOM     14  C   UNL     1      -6.597   6.680   0.366  1.00  0.00     0.177 C 
BRANCH  14  15
ATOM     15  C   UNL     1      -5.436   7.424  -0.322  1.00  0.00     0.038 C 
BRANCH  15  16
ATOM     16  C   UNL     1      -4.205   7.847   0.510  1.00  0.00    -0.015 C 
ATOM     17  C   UNL     1      -2.933   7.943  -0.338  1.00  0.00     0.007 C 
ATOM     18  C   UNL     1      -3.960   6.828   1.630  1.00  0.00     0.007 C 
ENDBRANCH  15  16
ENDBRANCH  14  15
BRANCH  14  19
ATOM     19  C   UNL     1      -7.699   7.346   1.260  1.00  0.00     0.245 C 
ATOM     20  O   UNL     1      -8.105   6.687   2.232  1.00  0.00    -0.272 OA
BRANCH  19  21
ATOM     21  N   UNL     1      -8.307   8.553   0.963  1.00  0.00    -0.332 N 
ATOM     22  C   UNL     1      -9.558   8.711   0.243  1.00  0.00     0.147 C 
BRANCH  21  23
ATOM     23  C   UNL     1      -7.627   9.802   1.404  1.00  0.00     0.178 C 
BRANCH  23  24
ATOM     24  C   UNL     1      -7.519  10.895   0.321  1.00  0.00     0.070 C 
BRANCH  24  25
ATOM     25  C   UNL     1      -6.184  11.052  -0.368  1.00  0.00    -0.045 A 
ATOM     26  C   UNL     1      -6.042  10.766  -1.731  1.00  0.00     0.004 A 
ATOM     27  C   UNL     1      -5.061  11.484   0.355  1.00  0.00     0.004 A 
ATOM     28  C   UNL     1      -4.800  10.897  -2.357  1.00  0.00     0.000 A 
ATOM     29  C   UNL     1      -3.821  11.616  -0.272  1.00  0.00     0.000 A 
ATOM     30  C   UNL     1      -3.691  11.319  -1.627  1.00  0.00     0.000 A 
ENDBRANCH  24  25
ENDBRANCH  23  24
BRANCH  23  31
ATOM     31  C   UNL     1      -8.115  10.300   2.786  1.00  0.00     0.243 C 
ATOM     32  O   UNL     1      -8.833   9.645   3.537  1.00  0.00    -0.273 OA
ATOM     33  N   UNL     1      -7.824  11.631   3.028  1.00  0.00    -0.341 N 
ATOM     34  H   UNL     1      -7.225  12.126   2.363  1.00  0.00     0.164 HD
BRANCH  33  35
ATOM     35  C   UNL     1      -8.291  12.347   4.219  1.00  0.00     0.194 C 
BRANCH  35  36
ATOM     36  C   UNL     1      -9.490  13.302   3.955  1.00  0.00     0.017 C 
ATOM     37  C   UNL     1     -10.786  12.758   4.582  1.00  0.00     0.010 C 
ATOM     38  C   UNL     1      -9.763  13.532   2.464  1.00  0.00     0.010 C 
ENDBRANCH  35  36
BRANCH  35  39
ATOM     39  C   UNL     1      -7.138  13.060   4.979  1.00  0.00     0.329 C 
ATOM     40  O   UNL     1      -6.293  13.765   4.440  1.00  0.00    -0.250 OA
BRANCH  39  41
ATOM     41  O   UNL     1      -7.221  12.883   6.333  1.00  0.00    -0.458 OA
BRANCH  41  42
ATOM     42  C   UNL     1      -6.535  13.862   7.150  1.00  0.00     0.205 CG0
ATOM     43  C   UNL     1      -5.423  13.129   7.898  1.00  0.00     0.056 C 
ATOM     44  G   UNL     1      -7.558  14.512   8.102  1.00  0.00     0.000 G0
ENDBRANCH  41  42
ENDBRANCH  39  41
ENDBRANCH  35  39
ENDBRANCH  33  35
ENDBRANCH  23  31
ENDBRANCH  21  23
ENDBRANCH  19  21
ENDBRANCH  14  19
ENDBRANCH   7  14
ENDBRANCH   2   5
BRANCH   3  45
ATOM     45  C   UNL     1      -5.363  -0.057  -1.316  1.00  0.00     0.171 C 
BRANCH  45  46
ATOM     46  N   UNL     1      -5.825  -1.433  -1.197  1.00  0.00    -0.342 N 
ATOM     47  C   UNL     1      -5.573  -2.380  -2.157  1.00  0.00     0.247 C 
ATOM     48  O   UNL     1      -4.879  -2.158  -3.150  1.00  0.00    -0.273 OA
ATOM     49  H   UNL     1      -6.356  -1.675  -0.362  1.00  0.00     0.164 HD
BRANCH  47  50
ATOM     50  C   UNL     1      -6.244  -3.741  -1.920  1.00  0.00     0.212 CG0
ATOM     51  G   UNL     1      -5.217  -4.836  -2.270  1.00  0.00     0.000 G0
BRANCH  50  52
ATOM     52  N   UNL     1      -6.633  -3.743  -0.513  1.00  0.00    -0.339 N 
ATOM     53  C   UNL     1      -5.969  -4.459   0.454  1.00  0.00     0.243 C 
ATOM     54  O   UNL     1      -5.022  -5.198   0.197  1.00  0.00    -0.273 OA
ATOM     55  H   UNL     1      -7.478  -3.238  -0.255  1.00  0.00     0.164 HD
BRANCH  53  56
ATOM     56  C   UNL     1      -6.614  -4.375   1.852  1.00  0.00     0.182 C 
BRANCH  56  57
ATOM     57  N   UNL     1      -5.820  -3.530   2.749  1.00  0.00    -0.344 N 
ATOM     58  C   UNL     1      -5.858  -2.158   2.694  1.00  0.00     0.220 C 
ATOM     59  O   UNL     1      -6.499  -1.546   1.846  1.00  0.00    -0.275 OA
ATOM     60  H   UNL     1      -5.357  -3.993   3.527  1.00  0.00     0.164 HD
BRANCH  58  61
ATOM     61  C   UNL     1      -5.002  -1.490   3.753  1.00  0.00     0.100 C 
BRANCH  61  62
ATOM     62  C   UNL     1      -3.695  -0.909   3.214  1.00  0.00     0.010 C 
BRANCH  62  63
ATOM     63  C   UNL     1      -2.706  -0.472   4.302  1.00  0.00     0.000 C 
BRANCH  63  64
ATOM     64  C   UNL     1      -1.240  -0.722   3.954  1.00  0.00    -0.003 C 
ATOM     65  C   UNL     1      -0.716   0.320   2.976  1.00  0.00     0.004 C 
ENDBRANCH  63  64
ENDBRANCH  62  63
ENDBRANCH  61  62
ENDBRANCH  58  61
ENDBRANCH  56  57
BRANCH  56  66
ATOM     66  C   UNL     1      -6.863  -5.764   2.438  1.00  0.00     0.157 C 
BRANCH  66  67
ATOM     67  C   UNL     1      -8.325  -6.109   2.418  1.00  0.00     0.305 C 
ATOM     68  O   UNL     1      -9.110  -5.918   1.502  1.00  0.00    -0.252 OA
BRANCH  67  69
ATOM     69  O   UNL     1      -8.719  -6.731   3.545  1.00  0.00    -0.481 OA
ATOM     70  H   UNL     1      -8.899  -7.655   3.271  1.00  0.00     0.296 HD
ENDBRANCH  67  69
ENDBRANCH  66  67
ENDBRANCH  56  66
ENDBRANCH  53  56
ENDBRANCH  50  52
ENDBRANCH  47  50
ENDBRANCH  45  46
BRANCH  45  71
ATOM     71  C   UNL     1      -4.221   0.243  -0.339  1.00  0.00     0.037 C 
BRANCH  71  72
ATOM     72  C   UNL     1      -2.851   0.182  -1.019  1.00  0.00     0.026 C 
BRANCH  72  73
ATOM     73  C   UNL     1      -2.943   0.545  -2.499  1.00  0.00     0.146 C 
BRANCH  73  74
ATOM     74  N   UNL     1      -1.613   0.391  -3.081  1.00  0.00    -0.254 NA
ATOM     75  C   UNL     1      -1.285  -0.764  -3.528  1.00  0.00     0.185 C 
ATOM     76  N   UNL     1      -0.069  -0.937  -4.070  1.00  0.00    -0.370 N 
ATOM     77  N   UNL     1      -2.005  -1.900  -3.545  1.00  0.00    -0.370 N 
ATOM     78  H   UNL     1       0.541  -0.132  -4.091  1.00  0.00     0.159 HD
ATOM     79  H   UNL     1       0.309  -1.837  -4.307  1.00  0.00     0.159 HD
ATOM     80  H   UNL     1      -2.943  -1.919  -3.173  1.00  0.00     0.159 HD
ATOM     81  H   UNL     1      -1.684  -2.722  -4.029  1.00  0.00     0.159 HD
ENDBRANCH  73  74
ENDBRANCH  72  73
ENDBRANCH  71  72
ENDBRANCH  45  71
ENDBRANCH   3  45
TORSDOF 20
ENDMDL
MODEL 47
REMARK VINA RESULT:    -5.703     11.798     17.138
REMARK INTER + INTRA:         -22.081
REMARK INTER:                 -15.465
REMARK INTRA:                  -6.617
REMARK UNBOUND:                -5.711
REMARK SMILES CCCCCC(=O)N[C@H](CC(=O)O)C(=O)N[C@H]1C(=O)N[C@H](CCCN=C(N)N)C(=O)N[C@@H]2CC[C@H](O)N(C2=O)[C@@H](CC(C)C)C(=O)N(C)[C@@H](Cc2ccccc2)C(=O)N[C@H](C(C)C)C(=O)O[C@@H]1C
REMARK SMILES IDX 30 1 31 2 29 3 32 5 35 6 37 7 34 8 38 9 33 10 39 11 36 12
REMARK SMILES IDX 40 14 41 15 42 16 43 17 44 18 45 19 46 20 47 21 48 22 49 23
REMARK SMILES IDX 50 24 51 25 52 26 56 27 53 28 55 29 54 30 57 31 58 32 59 33
REMARK SMILES IDX 60 35 61 36 62 37 63 38 64 39 65 40 66 41 67 42 68 43 21 45
REMARK SMILES IDX 20 46 18 47 19 48 17 50 16 52 14 53 15 54 9 56 8 57 6 58
REMARK SMILES IDX 7 59 5 61 4 62 3 63 2 64 1 65 10 66 11 67 12 68 13 69 22 71
REMARK SMILES IDX 23 72 24 73 25 74 26 75 27 76 28 77
REMARK H PARENT 31 4 36 13 59 34 20 49 16 55 8 60 13 70 27 78 27 79 28 80
REMARK H PARENT 28 81
REMARK Flexibility Score:  259.900
ROOT
ATOM      1  O   UNL     1      -5.687  -0.095  -3.779  1.00  0.00    -0.273 OA
ATOM      2  N   UNL     1      -7.298   1.264  -2.892  1.00  0.00    -0.343 N 
ATOM      3  C   UNL     1      -6.470   0.163  -2.865  1.00  0.00     0.243 C 
ATOM      4  H   UNL     1      -7.919   1.453  -2.115  1.00  0.00     0.164 HD
ENDROOT
BRANCH   2   5
ATOM      5  C   UNL     1      -7.365   2.113  -4.077  1.00  0.00     0.171 C 
ATOM      6  C   UNL     1      -8.311   4.820  -4.502  1.00  0.00     0.214 C 
ATOM      7  N   UNL     1      -9.224   3.714  -4.673  1.00  0.00    -0.303 N 
ATOM      8  C   UNL     1      -6.867   4.464  -4.819  1.00  0.00     0.057 C 
ATOM      9  C   UNL     1      -8.851   2.400  -4.437  1.00  0.00     0.247 C 
ATOM     10  C   UNL     1      -6.422   3.308  -3.949  1.00  0.00     0.040 C 
ATOM     11  O   UNL     1      -9.661   1.467  -4.501  1.00  0.00    -0.272 OA
BRANCH   6  12
ATOM     12  O   UNL     1      -8.426   5.272  -3.173  1.00  0.00    -0.373 OA
ATOM     13  H   UNL     1      -9.017   4.643  -2.706  1.00  0.00     0.213 HD
ENDBRANCH   6  12
BRANCH   7  14
ATOM     14  C   UNL     1     -10.632   4.047  -4.973  1.00  0.00     0.177 C 
BRANCH  14  15
ATOM     15  C   UNL     1     -11.467   4.514  -3.764  1.00  0.00     0.038 C 
BRANCH  15  16
ATOM     16  C   UNL     1     -12.816   3.825  -3.459  1.00  0.00    -0.015 C 
ATOM     17  C   UNL     1     -13.123   2.685  -4.434  1.00  0.00     0.007 C 
ATOM     18  C   UNL     1     -13.953   4.851  -3.546  1.00  0.00     0.007 C 
ENDBRANCH  15  16
ENDBRANCH  14  15
BRANCH  14  19
ATOM     19  C   UNL     1     -10.761   4.602  -6.433  1.00  0.00     0.245 C 
ATOM     20  O   UNL     1     -11.316   5.706  -6.565  1.00  0.00    -0.272 OA
BRANCH  19  21
ATOM     21  N   UNL     1     -10.400   3.890  -7.563  1.00  0.00    -0.332 N 
ATOM     22  C   UNL     1     -10.903   2.578  -7.930  1.00  0.00     0.147 C 
BRANCH  21  23
ATOM     23  C   UNL     1      -9.403   4.505  -8.483  1.00  0.00     0.178 C 
BRANCH  23  24
ATOM     24  C   UNL     1      -8.578   3.496  -9.308  1.00  0.00     0.070 C 
BRANCH  24  25
ATOM     25  C   UNL     1      -7.075   3.549  -9.157  1.00  0.00    -0.045 A 
ATOM     26  C   UNL     1      -6.450   3.024  -8.018  1.00  0.00     0.004 A 
ATOM     27  C   UNL     1      -6.284   4.131 -10.158  1.00  0.00     0.004 A 
ATOM     28  C   UNL     1      -5.062   3.093  -7.878  1.00  0.00     0.000 A 
ATOM     29  C   UNL     1      -4.897   4.197 -10.017  1.00  0.00     0.000 A 
ATOM     30  C   UNL     1      -4.287   3.680  -8.876  1.00  0.00     0.000 A 
ENDBRANCH  24  25
ENDBRANCH  23  24
BRANCH  23  31
ATOM     31  C   UNL     1      -9.979   5.691  -9.292  1.00  0.00     0.243 C 
ATOM     32  O   UNL     1      -9.532   6.834  -9.249  1.00  0.00    -0.273 OA
ATOM     33  N   UNL     1     -11.170   5.395  -9.935  1.00  0.00    -0.341 N 
ATOM     34  H   UNL     1     -11.496   4.426  -9.931  1.00  0.00     0.164 HD
BRANCH  33  35
ATOM     35  C   UNL     1     -11.955   6.397 -10.662  1.00  0.00     0.194 C 
BRANCH  35  36
ATOM     36  C   UNL     1     -13.370   6.648 -10.067  1.00  0.00     0.017 C 
ATOM     37  C   UNL     1     -13.299   7.534  -8.811  1.00  0.00     0.010 C 
ATOM     38  C   UNL     1     -14.099   5.357  -9.677  1.00  0.00     0.010 C 
ENDBRANCH  35  36
BRANCH  35  39
ATOM     39  C   UNL     1     -12.009   6.120 -12.190  1.00  0.00     0.329 C 
ATOM     40  O   UNL     1     -12.285   5.032 -12.682  1.00  0.00    -0.250 OA
BRANCH  39  41
ATOM     41  O   UNL     1     -11.799   7.251 -12.931  1.00  0.00    -0.458 OA
BRANCH  41  42
ATOM     42  C   UNL     1     -11.582   7.057 -14.349  1.00  0.00     0.205 CG0
ATOM     43  C   UNL     1     -10.078   7.158 -14.595  1.00  0.00     0.056 C 
ATOM     44  G   UNL     1     -12.379   8.128 -15.119  1.00  0.00     0.000 G0
ENDBRANCH  41  42
ENDBRANCH  39  41
ENDBRANCH  35  39
ENDBRANCH  33  35
ENDBRANCH  23  31
ENDBRANCH  21  23
ENDBRANCH  19  21
ENDBRANCH  14  19
ENDBRANCH   7  14
ENDBRANCH   2   5
BRANCH   3  45
ATOM     45  C   UNL     1      -6.575  -0.707  -1.605  1.00  0.00     0.171 C 
BRANCH  45  46
ATOM     46  N   UNL     1      -5.488  -1.672  -1.701  1.00  0.00    -0.342 N 
ATOM     47  C   UNL     1      -4.622  -1.911  -0.664  1.00  0.00     0.247 C 
ATOM     48  O   UNL     1      -4.742  -1.384   0.443  1.00  0.00    -0.273 OA
ATOM     49  H   UNL     1      -5.386  -2.173  -2.582  1.00  0.00     0.164 HD
BRANCH  47  50
ATOM     50  C   UNL     1      -3.466  -2.867  -0.989  1.00  0.00     0.212 CG0
ATOM     51  G   UNL     1      -3.194  -3.717   0.268  1.00  0.00     0.000 G0
BRANCH  50  52
ATOM     52  N   UNL     1      -3.922  -3.656  -2.131  1.00  0.00    -0.339 N 
ATOM     53  C   UNL     1      -4.016  -5.027  -2.113  1.00  0.00     0.243 C 
ATOM     54  O   UNL     1      -3.669  -5.701  -1.147  1.00  0.00    -0.273 OA
ATOM     55  H   UNL     1      -4.118  -3.162  -2.999  1.00  0.00     0.164 HD
BRANCH  53  56
ATOM     56  C   UNL     1      -4.439  -5.644  -3.462  1.00  0.00     0.182 C 
BRANCH  56  57
ATOM     57  N   UNL     1      -3.303  -5.716  -4.387  1.00  0.00    -0.344 N 
ATOM     58  C   UNL     1      -2.736  -6.908  -4.764  1.00  0.00     0.220 C 
ATOM     59  O   UNL     1      -3.088  -7.987  -4.299  1.00  0.00    -0.275 OA
ATOM     60  H   UNL     1      -3.049  -4.859  -4.871  1.00  0.00     0.164 HD
BRANCH  58  61
ATOM     61  C   UNL     1      -1.614  -6.748  -5.773  1.00  0.00     0.100 C 
BRANCH  61  62
ATOM     62  C   UNL     1      -0.519  -7.808  -5.652  1.00  0.00     0.010 C 
BRANCH  62  63
ATOM     63  C   UNL     1       0.656  -7.610  -6.617  1.00  0.00     0.000 C 
BRANCH  63  64
ATOM     64  C   UNL     1       0.561  -6.345  -7.470  1.00  0.00    -0.003 C 
ATOM     65  C   UNL     1       1.561  -5.292  -7.015  1.00  0.00     0.004 C 
ENDBRANCH  63  64
ENDBRANCH  62  63
ENDBRANCH  61  62
ENDBRANCH  58  61
ENDBRANCH  56  57
BRANCH  56  66
ATOM     66  C   UNL     1      -5.630  -4.904  -4.067  1.00  0.00     0.157 C 
BRANCH  66  67
ATOM     67  C   UNL     1      -5.189  -3.941  -5.131  1.00  0.00     0.305 C 
ATOM     68  O   UNL     1      -5.101  -4.162  -6.329  1.00  0.00    -0.252 OA
BRANCH  67  69
ATOM     69  O   UNL     1      -4.926  -2.716  -4.636  1.00  0.00    -0.481 OA
ATOM     70  H   UNL     1      -5.767  -2.429  -4.221  1.00  0.00     0.296 HD
ENDBRANCH  67  69
ENDBRANCH  66  67
ENDBRANCH  56  66
ENDBRANCH  53  56
ENDBRANCH  50  52
ENDBRANCH  47  50
ENDBRANCH  45  46
BRANCH  45  71
ATOM     71  C   UNL     1      -7.942  -1.398  -1.547  1.00  0.00     0.037 C 
BRANCH  71  72
ATOM     72  C   UNL     1      -7.881  -2.839  -2.060  1.00  0.00     0.026 C 
BRANCH  72  73
ATOM     73  C   UNL     1      -8.272  -3.838  -0.973  1.00  0.00     0.146 C 
BRANCH  73  74
ATOM     74  N   UNL     1      -7.059  -4.525  -0.539  1.00  0.00    -0.254 NA
ATOM     75  C   UNL     1      -6.709  -4.406   0.688  1.00  0.00     0.185 C 
ATOM     76  N   UNL     1      -5.599  -5.027   1.117  1.00  0.00    -0.370 N 
ATOM     77  N   UNL     1      -7.309  -3.718   1.675  1.00  0.00    -0.370 N 
ATOM     78  H   UNL     1      -5.081  -5.562   0.434  1.00  0.00     0.159 HD
ATOM     79  H   UNL     1      -5.186  -4.864   2.018  1.00  0.00     0.159 HD
ATOM     80  H   UNL     1      -8.159  -3.203   1.499  1.00  0.00     0.159 HD
ATOM     81  H   UNL     1      -7.004  -3.791   2.631  1.00  0.00     0.159 HD
ENDBRANCH  73  74
ENDBRANCH  72  73
ENDBRANCH  71  72
ENDBRANCH  45  71
ENDBRANCH   3  45
TORSDOF 20
ENDMDL
MODEL 48
REMARK VINA RESULT:    -5.690     11.352     16.739
REMARK INTER + INTRA:         -22.045
REMARK INTER:                 -17.494
REMARK INTRA:                  -4.551
REMARK UNBOUND:                -5.711
REMARK SMILES CCCCCC(=O)N[C@H](CC(=O)O)C(=O)N[C@H]1C(=O)N[C@H](CCCN=C(N)N)C(=O)N[C@@H]2CC[C@H](O)N(C2=O)[C@@H](CC(C)C)C(=O)N(C)[C@@H](Cc2ccccc2)C(=O)N[C@H](C(C)C)C(=O)O[C@@H]1C
REMARK SMILES IDX 30 1 31 2 29 3 32 5 35 6 37 7 34 8 38 9 33 10 39 11 36 12
REMARK SMILES IDX 40 14 41 15 42 16 43 17 44 18 45 19 46 20 47 21 48 22 49 23
REMARK SMILES IDX 50 24 51 25 52 26 56 27 53 28 55 29 54 30 57 31 58 32 59 33
REMARK SMILES IDX 60 35 61 36 62 37 63 38 64 39 65 40 66 41 67 42 68 43 21 45
REMARK SMILES IDX 20 46 18 47 19 48 17 50 16 52 14 53 15 54 9 56 8 57 6 58
REMARK SMILES IDX 7 59 5 61 4 62 3 63 2 64 1 65 10 66 11 67 12 68 13 69 22 71
REMARK SMILES IDX 23 72 24 73 25 74 26 75 27 76 28 77
REMARK H PARENT 31 4 36 13 59 34 20 49 16 55 8 60 13 70 27 78 27 79 28 80
REMARK H PARENT 28 81
REMARK Flexibility Score:  259.900
ROOT
ATOM      1  O   UNL     1      -3.559   2.279  -3.947  1.00  0.00    -0.273 OA
ATOM      2  N   UNL     1      -5.451   1.011  -4.157  1.00  0.00    -0.343 N 
ATOM      3  C   UNL     1      -4.734   2.179  -4.302  1.00  0.00     0.243 C 
ATOM      4  H   UNL     1      -6.412   0.961  -4.474  1.00  0.00     0.164 HD
ENDROOT
BRANCH   2   5
ATOM      5  C   UNL     1      -4.874  -0.133  -3.459  1.00  0.00     0.171 C 
ATOM      6  C   UNL     1      -5.155  -2.996  -3.813  1.00  0.00     0.214 C 
ATOM      7  N   UNL     1      -6.043  -2.302  -2.910  1.00  0.00    -0.303 N 
ATOM      8  C   UNL     1      -3.783  -2.350  -3.924  1.00  0.00     0.057 C 
ATOM      9  C   UNL     1      -5.996  -0.928  -2.733  1.00  0.00     0.247 C 
ATOM     10  C   UNL     1      -3.929  -0.912  -4.372  1.00  0.00     0.040 C 
ATOM     11  O   UNL     1      -6.815  -0.330  -2.023  1.00  0.00    -0.272 OA
BRANCH   6  12
ATOM     12  O   UNL     1      -5.779  -3.047  -5.075  1.00  0.00    -0.373 OA
ATOM     13  H   UNL     1      -6.741  -2.923  -4.926  1.00  0.00     0.213 HD
ENDBRANCH   6  12
BRANCH   7  14
ATOM     14  C   UNL     1      -7.116  -3.099  -2.280  1.00  0.00     0.177 C 
BRANCH  14  15
ATOM     15  C   UNL     1      -8.547  -2.579  -2.521  1.00  0.00     0.038 C 
BRANCH  15  16
ATOM     16  C   UNL     1      -9.659  -2.911  -1.501  1.00  0.00    -0.015 C 
ATOM     17  C   UNL     1     -10.613  -3.996  -2.009  1.00  0.00     0.007 C 
ATOM     18  C   UNL     1     -10.480  -1.650  -1.202  1.00  0.00     0.007 C 
ENDBRANCH  15  16
ENDBRANCH  14  15
BRANCH  14  19
ATOM     19  C   UNL     1      -6.700  -4.608  -2.205  1.00  0.00     0.245 C 
ATOM     20  O   UNL     1      -7.406  -5.415  -2.833  1.00  0.00    -0.272 OA
BRANCH  19  21
ATOM     21  N   UNL     1      -5.679  -5.088  -1.403  1.00  0.00    -0.332 N 
ATOM     22  C   UNL     1      -5.394  -4.649  -0.049  1.00  0.00     0.147 C 
BRANCH  21  23
ATOM     23  C   UNL     1      -4.784  -6.135  -1.969  1.00  0.00     0.178 C 
BRANCH  23  24
ATOM     24  C   UNL     1      -3.337  -5.672  -2.234  1.00  0.00     0.070 C 
BRANCH  24  25
ATOM     25  C   UNL     1      -2.678  -6.166  -3.501  1.00  0.00    -0.045 A 
ATOM     26  C   UNL     1      -3.040  -7.395  -4.066  1.00  0.00     0.004 A 
ATOM     27  C   UNL     1      -1.685  -5.397  -4.128  1.00  0.00     0.004 A 
ATOM     28  C   UNL     1      -2.414  -7.852  -5.228  1.00  0.00     0.000 A 
ATOM     29  C   UNL     1      -1.061  -5.855  -5.290  1.00  0.00     0.000 A 
ATOM     30  C   UNL     1      -1.424  -7.083  -5.837  1.00  0.00     0.000 A 
ENDBRANCH  24  25
ENDBRANCH  23  24
BRANCH  23  31
ATOM     31  C   UNL     1      -4.910  -7.495  -1.241  1.00  0.00     0.243 C 
ATOM     32  O   UNL     1      -3.997  -8.027  -0.616  1.00  0.00    -0.273 OA
ATOM     33  N   UNL     1      -6.096  -8.158  -1.510  1.00  0.00    -0.341 N 
ATOM     34  H   UNL     1      -6.818  -7.665  -2.041  1.00  0.00     0.164 HD
BRANCH  33  35
ATOM     35  C   UNL     1      -6.382  -9.511  -1.025  1.00  0.00     0.194 C 
BRANCH  35  36
ATOM     36  C   UNL     1      -6.418 -10.591  -2.143  1.00  0.00     0.017 C 
ATOM     37  C   UNL     1      -5.067 -10.687  -2.872  1.00  0.00     0.010 C 
ATOM     38  C   UNL     1      -7.494 -10.327  -3.203  1.00  0.00     0.010 C 
ENDBRANCH  35  36
BRANCH  35  39
ATOM     39  C   UNL     1      -7.646  -9.568  -0.122  1.00  0.00     0.329 C 
ATOM     40  O   UNL     1      -8.252  -8.579   0.273  1.00  0.00    -0.250 OA
BRANCH  39  41
ATOM     41  O   UNL     1      -8.059 -10.850   0.113  1.00  0.00    -0.458 OA
BRANCH  41  42
ATOM     42  C   UNL     1      -9.464 -11.121  -0.107  1.00  0.00     0.205 CG0
ATOM     43  C   UNL     1     -10.084 -11.437   1.252  1.00  0.00     0.056 C 
ATOM     44  G   UNL     1      -9.589 -12.294  -1.099  1.00  0.00     0.000 G0
ENDBRANCH  41  42
ENDBRANCH  39  41
ENDBRANCH  35  39
ENDBRANCH  33  35
ENDBRANCH  23  31
ENDBRANCH  21  23
ENDBRANCH  19  21
ENDBRANCH  14  19
ENDBRANCH   7  14
ENDBRANCH   2   5
BRANCH   3  45
ATOM     45  C   UNL     1      -5.495   3.340  -4.957  1.00  0.00     0.171 C 
BRANCH  45  46
ATOM     46  N   UNL     1      -5.037   4.544  -4.276  1.00  0.00    -0.342 N 
ATOM     47  C   UNL     1      -4.472   5.599  -4.947  1.00  0.00     0.247 C 
ATOM     48  O   UNL     1      -4.377   5.637  -6.174  1.00  0.00    -0.273 OA
ATOM     49  H   UNL     1      -5.149   4.578  -3.264  1.00  0.00     0.164 HD
BRANCH  47  50
ATOM     50  C   UNL     1      -3.936   6.726  -4.053  1.00  0.00     0.212 CG0
ATOM     51  G   UNL     1      -3.384   7.832  -4.974  1.00  0.00     0.000 G0
BRANCH  50  52
ATOM     52  N   UNL     1      -5.076   7.161  -3.249  1.00  0.00    -0.339 N 
ATOM     53  C   UNL     1      -4.955   7.661  -1.976  1.00  0.00     0.243 C 
ATOM     54  O   UNL     1      -3.877   7.733  -1.391  1.00  0.00    -0.273 OA
ATOM     55  H   UNL     1      -6.007   7.023  -3.636  1.00  0.00     0.164 HD
BRANCH  53  56
ATOM     56  C   UNL     1      -6.303   7.972  -1.293  1.00  0.00     0.182 C 
BRANCH  56  57
ATOM     57  N   UNL     1      -6.276   9.289  -0.649  1.00  0.00    -0.344 N 
ATOM     58  C   UNL     1      -6.739  10.422  -1.272  1.00  0.00     0.220 C 
ATOM     59  O   UNL     1      -7.139  10.426  -2.431  1.00  0.00    -0.275 OA
ATOM     60  H   UNL     1      -6.049   9.312   0.341  1.00  0.00     0.164 HD
BRANCH  58  61
ATOM     61  C   UNL     1      -6.668  11.661  -0.397  1.00  0.00     0.100 C 
BRANCH  61  62
ATOM     62  C   UNL     1      -5.405  12.494  -0.610  1.00  0.00     0.010 C 
BRANCH  62  63
ATOM     63  C   UNL     1      -5.079  13.447   0.547  1.00  0.00     0.000 C 
BRANCH  63  64
ATOM     64  C   UNL     1      -4.778  14.881   0.112  1.00  0.00    -0.003 C 
ATOM     65  C   UNL     1      -3.941  14.911  -1.159  1.00  0.00     0.004 C 
ENDBRANCH  63  64
ENDBRANCH  62  63
ENDBRANCH  61  62
ENDBRANCH  58  61
ENDBRANCH  56  57
BRANCH  56  66
ATOM     66  C   UNL     1      -6.708   6.864  -0.323  1.00  0.00     0.157 C 
BRANCH  66  67
ATOM     67  C   UNL     1      -6.507   7.289   1.103  1.00  0.00     0.305 C 
ATOM     68  O   UNL     1      -5.449   7.327   1.714  1.00  0.00    -0.252 OA
BRANCH  67  69
ATOM     69  O   UNL     1      -7.651   7.699   1.681  1.00  0.00    -0.481 OA
ATOM     70  H   UNL     1      -7.810   7.057   2.406  1.00  0.00     0.296 HD
ENDBRANCH  67  69
ENDBRANCH  66  67
ENDBRANCH  56  66
ENDBRANCH  53  56
ENDBRANCH  50  52
ENDBRANCH  47  50
ENDBRANCH  45  46
BRANCH  45  71
ATOM     71  C   UNL     1      -7.007   3.143  -4.801  1.00  0.00     0.037 C 
BRANCH  71  72
ATOM     72  C   UNL     1      -7.792   4.407  -5.157  1.00  0.00     0.026 C 
BRANCH  72  73
ATOM     73  C   UNL     1      -8.335   4.347  -6.583  1.00  0.00     0.146 C 
BRANCH  73  74
ATOM     74  N   UNL     1      -7.393   5.049  -7.450  1.00  0.00    -0.254 NA
ATOM     75  C   UNL     1      -6.706   4.351  -8.277  1.00  0.00     0.185 C 
ATOM     76  N   UNL     1      -5.832   4.969  -9.089  1.00  0.00    -0.370 N 
ATOM     77  N   UNL     1      -6.721   3.022  -8.477  1.00  0.00    -0.370 N 
ATOM     78  H   UNL     1      -5.754   5.971  -8.998  1.00  0.00     0.159 HD
ATOM     79  H   UNL     1      -5.162   4.479  -9.655  1.00  0.00     0.159 HD
ATOM     80  H   UNL     1      -7.334   2.428  -7.940  1.00  0.00     0.159 HD
ATOM     81  H   UNL     1      -6.218   2.597  -9.239  1.00  0.00     0.159 HD
ENDBRANCH  73  74
ENDBRANCH  72  73
ENDBRANCH  71  72
ENDBRANCH  45  71
ENDBRANCH   3  45
TORSDOF 20
ENDMDL
MODEL 49
REMARK VINA RESULT:    -5.663      8.581     13.244
REMARK INTER + INTRA:         -21.966
REMARK INTER:                 -16.500
REMARK INTRA:                  -5.466
REMARK UNBOUND:                -5.711
REMARK SMILES CCCCCC(=O)N[C@H](CC(=O)O)C(=O)N[C@H]1C(=O)N[C@H](CCCN=C(N)N)C(=O)N[C@@H]2CC[C@H](O)N(C2=O)[C@@H](CC(C)C)C(=O)N(C)[C@@H](Cc2ccccc2)C(=O)N[C@H](C(C)C)C(=O)O[C@@H]1C
REMARK SMILES IDX 30 1 31 2 29 3 32 5 35 6 37 7 34 8 38 9 33 10 39 11 36 12
REMARK SMILES IDX 40 14 41 15 42 16 43 17 44 18 45 19 46 20 47 21 48 22 49 23
REMARK SMILES IDX 50 24 51 25 52 26 56 27 53 28 55 29 54 30 57 31 58 32 59 33
REMARK SMILES IDX 60 35 61 36 62 37 63 38 64 39 65 40 66 41 67 42 68 43 21 45
REMARK SMILES IDX 20 46 18 47 19 48 17 50 16 52 14 53 15 54 9 56 8 57 6 58
REMARK SMILES IDX 7 59 5 61 4 62 3 63 2 64 1 65 10 66 11 67 12 68 13 69 22 71
REMARK SMILES IDX 23 72 24 73 25 74 26 75 27 76 28 77
REMARK H PARENT 31 4 36 13 59 34 20 49 16 55 8 60 13 70 27 78 27 79 28 80
REMARK H PARENT 28 81
REMARK Flexibility Score:  259.900
ROOT
ATOM      1  O   UNL     1      -7.578   2.884  -0.713  1.00  0.00    -0.273 OA
ATOM      2  N   UNL     1      -8.941   4.576  -1.427  1.00  0.00    -0.343 N 
ATOM      3  C   UNL     1      -8.093   3.510  -1.640  1.00  0.00     0.243 C 
ATOM      4  H   UNL     1      -9.358   5.058  -2.214  1.00  0.00     0.164 HD
ENDROOT
BRANCH   2   5
ATOM      5  C   UNL     1      -9.170   5.085  -0.080  1.00  0.00     0.171 C 
ATOM      6  C   UNL     1     -10.845   7.212   0.958  1.00  0.00     0.214 C 
ATOM      7  N   UNL     1      -9.483   7.502   0.578  1.00  0.00    -0.303 N 
ATOM      8  C   UNL     1     -11.042   5.785   1.446  1.00  0.00     0.057 C 
ATOM      9  C   UNL     1      -8.645   6.546   0.028  1.00  0.00     0.247 C 
ATOM     10  C   UNL     1     -10.603   4.812   0.374  1.00  0.00     0.040 C 
ATOM     11  O   UNL     1      -7.507   6.823  -0.375  1.00  0.00    -0.272 OA
BRANCH   6  12
ATOM     12  O   UNL     1     -11.667   7.469  -0.157  1.00  0.00    -0.373 OA
ATOM     13  H   UNL     1     -12.518   7.816   0.188  1.00  0.00     0.213 HD
ENDBRANCH   6  12
BRANCH   7  14
ATOM     14  C   UNL     1      -9.050   8.914   0.661  1.00  0.00     0.177 C 
BRANCH  14  15
ATOM     15  C   UNL     1      -9.161   9.712  -0.653  1.00  0.00     0.038 C 
BRANCH  15  16
ATOM     16  C   UNL     1      -8.035  10.695  -1.043  1.00  0.00    -0.015 C 
ATOM     17  C   UNL     1      -8.431  12.157  -0.814  1.00  0.00     0.007 C 
ATOM     18  C   UNL     1      -7.683  10.519  -2.525  1.00  0.00     0.007 C 
ENDBRANCH  15  16
ENDBRANCH  14  15
BRANCH  14  19
ATOM     19  C   UNL     1      -9.327   9.484   2.095  1.00  0.00     0.245 C 
ATOM     20  O   UNL     1     -10.225  10.337   2.194  1.00  0.00    -0.272 OA
BRANCH  19  21
ATOM     21  N   UNL     1      -8.565   9.175   3.208  1.00  0.00    -0.332 N 
ATOM     22  C   UNL     1      -8.802   8.062   4.109  1.00  0.00     0.147 C 
BRANCH  21  23
ATOM     23  C   UNL     1      -7.408  10.058   3.525  1.00  0.00     0.178 C 
BRANCH  23  24
ATOM     24  C   UNL     1      -6.848  10.846   2.323  1.00  0.00     0.070 C 
BRANCH  24  25
ATOM     25  C   UNL     1      -5.784  10.168   1.491  1.00  0.00    -0.045 A 
ATOM     26  C   UNL     1      -5.064  10.884   0.526  1.00  0.00     0.004 A 
ATOM     27  C   UNL     1      -5.505   8.805   1.673  1.00  0.00     0.004 A 
ATOM     28  C   UNL     1      -4.093  10.247  -0.250  1.00  0.00     0.000 A 
ATOM     29  C   UNL     1      -4.534   8.170   0.897  1.00  0.00     0.000 A 
ATOM     30  C   UNL     1      -3.831   8.891  -0.066  1.00  0.00     0.000 A 
ENDBRANCH  24  25
ENDBRANCH  23  24
BRANCH  23  31
ATOM     31  C   UNL     1      -7.621  10.893   4.810  1.00  0.00     0.243 C 
ATOM     32  O   UNL     1      -6.885  10.842   5.792  1.00  0.00    -0.273 OA
ATOM     33  N   UNL     1      -8.826  11.574   4.833  1.00  0.00    -0.341 N 
ATOM     34  H   UNL     1      -9.399  11.576   3.986  1.00  0.00     0.164 HD
BRANCH  33  35
ATOM     35  C   UNL     1      -9.291  12.333   5.997  1.00  0.00     0.194 C 
BRANCH  35  36
ATOM     36  C   UNL     1     -10.739  11.984   6.445  1.00  0.00     0.017 C 
ATOM     37  C   UNL     1     -10.750  11.316   7.831  1.00  0.00     0.010 C 
ATOM     38  C   UNL     1     -11.461  11.041   5.475  1.00  0.00     0.010 C 
ENDBRANCH  35  36
BRANCH  35  39
ATOM     39  C   UNL     1      -9.089  13.866   5.832  1.00  0.00     0.329 C 
ATOM     40  O   UNL     1      -9.035  14.438   4.750  1.00  0.00    -0.250 OA
BRANCH  39  41
ATOM     41  O   UNL     1      -9.064  14.519   7.033  1.00  0.00    -0.458 OA
BRANCH  41  42
ATOM     42  C   UNL     1      -7.895  14.300   7.858  1.00  0.00     0.205 CG0
ATOM     43  C   UNL     1      -8.388  13.895   9.246  1.00  0.00     0.056 C 
ATOM     44  G   UNL     1      -7.061  15.596   7.884  1.00  0.00     0.000 G0
ENDBRANCH  41  42
ENDBRANCH  39  41
ENDBRANCH  35  39
ENDBRANCH  33  35
ENDBRANCH  23  31
ENDBRANCH  21  23
ENDBRANCH  19  21
ENDBRANCH  14  19
ENDBRANCH   7  14
ENDBRANCH   2   5
BRANCH   3  45
ATOM     45  C   UNL     1      -7.853   3.144  -3.111  1.00  0.00     0.171 C 
BRANCH  45  46
ATOM     46  N   UNL     1      -8.163   1.725  -3.219  1.00  0.00    -0.342 N 
ATOM     47  C   UNL     1      -8.488   1.131  -4.412  1.00  0.00     0.247 C 
ATOM     48  O   UNL     1      -8.471   1.734  -5.485  1.00  0.00    -0.273 OA
ATOM     49  H   UNL     1      -8.133   1.175  -2.362  1.00  0.00     0.164 HD
BRANCH  47  50
ATOM     50  C   UNL     1      -8.904  -0.344  -4.312  1.00  0.00     0.212 CG0
ATOM     51  G   UNL     1      -9.988  -0.597  -5.379  1.00  0.00     0.000 G0
BRANCH  50  52
ATOM     52  N   UNL     1      -7.681  -1.110  -4.539  1.00  0.00    -0.339 N 
ATOM     53  C   UNL     1      -6.876  -1.565  -3.523  1.00  0.00     0.243 C 
ATOM     54  O   UNL     1      -7.096  -1.315  -2.341  1.00  0.00    -0.273 OA
ATOM     55  H   UNL     1      -7.386  -1.255  -5.502  1.00  0.00     0.164 HD
BRANCH  53  56
ATOM     56  C   UNL     1      -5.595  -2.274  -4.008  1.00  0.00     0.182 C 
BRANCH  56  57
ATOM     57  N   UNL     1      -5.751  -3.732  -3.962  1.00  0.00    -0.344 N 
ATOM     58  C   UNL     1      -5.429  -4.541  -5.025  1.00  0.00     0.220 C 
ATOM     59  O   UNL     1      -5.059  -4.098  -6.107  1.00  0.00    -0.275 OA
ATOM     60  H   UNL     1      -5.956  -4.145  -3.056  1.00  0.00     0.164 HD
BRANCH  58  61
ATOM     61  C   UNL     1      -5.614  -6.018  -4.734  1.00  0.00     0.100 C 
BRANCH  61  62
ATOM     62  C   UNL     1      -5.369  -6.394  -3.272  1.00  0.00     0.010 C 
BRANCH  62  63
ATOM     63  C   UNL     1      -4.339  -7.514  -3.076  1.00  0.00     0.000 C 
BRANCH  63  64
ATOM     64  C   UNL     1      -3.933  -7.744  -1.621  1.00  0.00    -0.003 C 
ATOM     65  C   UNL     1      -4.042  -9.214  -1.241  1.00  0.00     0.004 C 
ENDBRANCH  63  64
ENDBRANCH  62  63
ENDBRANCH  61  62
ENDBRANCH  58  61
ENDBRANCH  56  57
BRANCH  56  66
ATOM     66  C   UNL     1      -4.366  -1.801  -3.235  1.00  0.00     0.157 C 
BRANCH  66  67
ATOM     67  C   UNL     1      -3.221  -1.508  -4.161  1.00  0.00     0.305 C 
ATOM     68  O   UNL     1      -2.708  -0.419  -4.369  1.00  0.00    -0.252 OA
BRANCH  67  69
ATOM     69  O   UNL     1      -2.738  -2.620  -4.747  1.00  0.00    -0.481 OA
ATOM     70  H   UNL     1      -3.493  -3.245  -4.758  1.00  0.00     0.296 HD
ENDBRANCH  67  69
ENDBRANCH  66  67
ENDBRANCH  56  66
ENDBRANCH  53  56
ENDBRANCH  50  52
ENDBRANCH  47  50
ENDBRANCH  45  46
BRANCH  45  71
ATOM     71  C   UNL     1      -6.402   3.438  -3.504  1.00  0.00     0.037 C 
BRANCH  71  72
ATOM     72  C   UNL     1      -6.122   4.941  -3.592  1.00  0.00     0.026 C 
BRANCH  72  73
ATOM     73  C   UNL     1      -4.671   5.219  -3.980  1.00  0.00     0.146 C 
BRANCH  73  74
ATOM     74  N   UNL     1      -4.627   5.424  -5.425  1.00  0.00    -0.254 NA
ATOM     75  C   UNL     1      -3.936   6.408  -5.869  1.00  0.00     0.185 C 
ATOM     76  N   UNL     1      -3.874   6.621  -7.193  1.00  0.00    -0.370 N 
ATOM     77  N   UNL     1      -3.219   7.315  -5.183  1.00  0.00    -0.370 N 
ATOM     78  H   UNL     1      -4.393   5.987  -7.784  1.00  0.00     0.159 HD
ATOM     79  H   UNL     1      -3.477   7.448  -7.603  1.00  0.00     0.159 HD
ATOM     80  H   UNL     1      -3.170   7.276  -4.176  1.00  0.00     0.159 HD
ATOM     81  H   UNL     1      -2.621   7.977  -5.649  1.00  0.00     0.159 HD
ENDBRANCH  73  74
ENDBRANCH  72  73
ENDBRANCH  71  72
ENDBRANCH  45  71
ENDBRANCH   3  45
TORSDOF 20
ENDMDL
MODEL 50
REMARK VINA RESULT:    -5.652      9.019     14.770
REMARK INTER + INTRA:         -21.937
REMARK INTER:                 -16.343
REMARK INTRA:                  -5.594
REMARK UNBOUND:                -5.711
REMARK SMILES CCCCCC(=O)N[C@H](CC(=O)O)C(=O)N[C@H]1C(=O)N[C@H](CCCN=C(N)N)C(=O)N[C@@H]2CC[C@H](O)N(C2=O)[C@@H](CC(C)C)C(=O)N(C)[C@@H](Cc2ccccc2)C(=O)N[C@H](C(C)C)C(=O)O[C@@H]1C
REMARK SMILES IDX 30 1 31 2 29 3 32 5 35 6 37 7 34 8 38 9 33 10 39 11 36 12
REMARK SMILES IDX 40 14 41 15 42 16 43 17 44 18 45 19 46 20 47 21 48 22 49 23
REMARK SMILES IDX 50 24 51 25 52 26 56 27 53 28 55 29 54 30 57 31 58 32 59 33
REMARK SMILES IDX 60 35 61 36 62 37 63 38 64 39 65 40 66 41 67 42 68 43 21 45
REMARK SMILES IDX 20 46 18 47 19 48 17 50 16 52 14 53 15 54 9 56 8 57 6 58
REMARK SMILES IDX 7 59 5 61 4 62 3 63 2 64 1 65 10 66 11 67 12 68 13 69 22 71
REMARK SMILES IDX 23 72 24 73 25 74 26 75 27 76 28 77
REMARK H PARENT 31 4 36 13 59 34 20 49 16 55 8 60 13 70 27 78 27 79 28 80
REMARK H PARENT 28 81
REMARK Flexibility Score:  259.900
ROOT
ATOM      1  O   UNL     1      -7.884   1.061  -1.831  1.00  0.00    -0.273 OA
ATOM      2  N   UNL     1      -6.229   2.634  -1.957  1.00  0.00    -0.343 N 
ATOM      3  C   UNL     1      -6.686   1.344  -1.794  1.00  0.00     0.243 C 
ATOM      4  H   UNL     1      -5.235   2.828  -1.935  1.00  0.00     0.164 HD
ENDROOT
BRANCH   2   5
ATOM      5  C   UNL     1      -7.167   3.747  -2.062  1.00  0.00     0.171 C 
ATOM      6  C   UNL     1      -6.887   6.467  -3.024  1.00  0.00     0.214 C 
ATOM      7  N   UNL     1      -6.662   6.182  -1.626  1.00  0.00    -0.303 N 
ATOM      8  C   UNL     1      -7.896   5.534  -3.674  1.00  0.00     0.057 C 
ATOM      9  C   UNL     1      -6.729   4.898  -1.111  1.00  0.00     0.247 C 
ATOM     10  C   UNL     1      -7.438   4.099  -3.523  1.00  0.00     0.040 C 
ATOM     11  O   UNL     1      -6.450   4.649   0.070  1.00  0.00    -0.272 OA
BRANCH   6  12
ATOM     12  O   UNL     1      -5.645   6.388  -3.685  1.00  0.00    -0.373 OA
ATOM     13  H   UNL     1      -4.956   6.297  -2.993  1.00  0.00     0.213 HD
ENDBRANCH   6  12
BRANCH   7  14
ATOM     14  C   UNL     1      -6.206   7.303  -0.778  1.00  0.00     0.177 C 
BRANCH  14  15
ATOM     15  C   UNL     1      -4.814   7.866  -1.125  1.00  0.00     0.038 C 
BRANCH  15  16
ATOM     16  C   UNL     1      -3.610   7.532  -0.217  1.00  0.00    -0.015 C 
ATOM     17  C   UNL     1      -3.983   7.521   1.268  1.00  0.00     0.007 C 
ATOM     18  C   UNL     1      -2.499   8.569  -0.426  1.00  0.00     0.007 C 
ENDBRANCH  15  16
ENDBRANCH  14  15
BRANCH  14  19
ATOM     19  C   UNL     1      -7.432   8.152  -0.294  1.00  0.00     0.245 C 
ATOM     20  O   UNL     1      -8.400   7.524   0.168  1.00  0.00    -0.272 OA
BRANCH  19  21
ATOM     21  N   UNL     1      -7.535   9.522  -0.457  1.00  0.00    -0.332 N 
ATOM     22  C   UNL     1      -8.434  10.197  -1.375  1.00  0.00     0.147 C 
BRANCH  21  23
ATOM     23  C   UNL     1      -6.645  10.388   0.366  1.00  0.00     0.178 C 
BRANCH  23  24
ATOM     24  C   UNL     1      -6.346  11.772  -0.247  1.00  0.00     0.070 C 
BRANCH  24  25
ATOM     25  C   UNL     1      -5.010  11.947  -0.931  1.00  0.00    -0.045 A 
ATOM     26  C   UNL     1      -4.030  12.787  -0.386  1.00  0.00     0.004 A 
ATOM     27  C   UNL     1      -4.734  11.271  -2.129  1.00  0.00     0.004 A 
ATOM     28  C   UNL     1      -2.804  12.958  -1.033  1.00  0.00     0.000 A 
ATOM     29  C   UNL     1      -3.508  11.441  -2.773  1.00  0.00     0.000 A 
ATOM     30  C   UNL     1      -2.545  12.287  -2.226  1.00  0.00     0.000 A 
ENDBRANCH  24  25
ENDBRANCH  23  24
BRANCH  23  31
ATOM     31  C   UNL     1      -7.039  10.410   1.862  1.00  0.00     0.243 C 
ATOM     32  O   UNL     1      -6.668   9.573   2.682  1.00  0.00    -0.273 OA
ATOM     33  N   UNL     1      -8.003  11.355   2.167  1.00  0.00    -0.341 N 
ATOM     34  H   UNL     1      -8.277  12.022   1.440  1.00  0.00     0.164 HD
BRANCH  33  35
ATOM     35  C   UNL     1      -8.612  11.476   3.494  1.00  0.00     0.194 C 
BRANCH  35  36
ATOM     36  C   UNL     1     -10.091  11.001   3.560  1.00  0.00     0.017 C 
ATOM     37  C   UNL     1     -10.295   9.961   4.675  1.00  0.00     0.010 C 
ATOM     38  C   UNL     1     -10.583  10.373   2.251  1.00  0.00     0.010 C 
ENDBRANCH  35  36
BRANCH  35  39
ATOM     39  C   UNL     1      -8.429  12.892   4.109  1.00  0.00     0.329 C 
ATOM     40  O   UNL     1      -8.195  13.900   3.453  1.00  0.00    -0.250 OA
BRANCH  39  41
ATOM     41  O   UNL     1      -8.646  12.904   5.459  1.00  0.00    -0.458 OA
BRANCH  41  42
ATOM     42  C   UNL     1      -8.784  14.208   6.075  1.00  0.00     0.205 CG0
ATOM     43  C   UNL     1     -10.278  14.496   6.197  1.00  0.00     0.056 C 
ATOM     44  G   UNL     1      -8.053  15.245   5.199  1.00  0.00     0.000 G0
ENDBRANCH  41  42
ENDBRANCH  39  41
ENDBRANCH  35  39
ENDBRANCH  33  35
ENDBRANCH  23  31
ENDBRANCH  21  23
ENDBRANCH  19  21
ENDBRANCH  14  19
ENDBRANCH   7  14
ENDBRANCH   2   5
BRANCH   3  45
ATOM     45  C   UNL     1      -5.598   0.283  -1.586  1.00  0.00     0.171 C 
BRANCH  45  46
ATOM     46  N   UNL     1      -6.209  -0.986  -1.961  1.00  0.00    -0.342 N 
ATOM     47  C   UNL     1      -5.906  -1.630  -3.135  1.00  0.00     0.247 C 
ATOM     48  O   UNL     1      -5.047  -1.223  -3.918  1.00  0.00    -0.273 OA
ATOM     49  H   UNL     1      -6.885  -1.387  -1.314  1.00  0.00     0.164 HD
BRANCH  47  50
ATOM     50  C   UNL     1      -6.738  -2.888  -3.419  1.00  0.00     0.212 CG0
ATOM     51  G   UNL     1      -7.539  -2.636  -4.712  1.00  0.00     0.000 G0
BRANCH  50  52
ATOM     52  N   UNL     1      -5.771  -3.975  -3.542  1.00  0.00    -0.339 N 
ATOM     53  C   UNL     1      -5.077  -4.495  -2.476  1.00  0.00     0.243 C 
ATOM     54  O   UNL     1      -5.180  -4.046  -1.338  1.00  0.00    -0.273 OA
ATOM     55  H   UNL     1      -5.559  -4.316  -4.478  1.00  0.00     0.164 HD
BRANCH  53  56
ATOM     56  C   UNL     1      -4.049  -5.576  -2.864  1.00  0.00     0.182 C 
BRANCH  56  57
ATOM     57  N   UNL     1      -4.195  -6.768  -2.022  1.00  0.00    -0.344 N 
ATOM     58  C   UNL     1      -4.018  -8.040  -2.509  1.00  0.00     0.220 C 
ATOM     59  O   UNL     1      -3.799  -8.272  -3.693  1.00  0.00    -0.275 OA
ATOM     60  H   UNL     1      -4.275  -6.617  -1.020  1.00  0.00     0.164 HD
BRANCH  58  61
ATOM     61  C   UNL     1      -4.161  -9.116  -1.449  1.00  0.00     0.100 C 
BRANCH  61  62
ATOM     62  C   UNL     1      -5.603  -9.570  -1.222  1.00  0.00     0.010 C 
BRANCH  62  63
ATOM     63  C   UNL     1      -6.047 -10.726  -2.127  1.00  0.00     0.000 C 
BRANCH  63  64
ATOM     64  C   UNL     1      -7.360 -10.475  -2.867  1.00  0.00    -0.003 C 
ATOM     65  C   UNL     1      -7.441  -9.045  -3.382  1.00  0.00     0.004 C 
ENDBRANCH  63  64
ENDBRANCH  62  63
ENDBRANCH  61  62
ENDBRANCH  58  61
ENDBRANCH  56  57
BRANCH  56  66
ATOM     66  C   UNL     1      -2.623  -5.027  -2.842  1.00  0.00     0.157 C 
BRANCH  66  67
ATOM     67  C   UNL     1      -2.028  -5.005  -4.221  1.00  0.00     0.305 C 
ATOM     68  O   UNL     1      -1.521  -4.048  -4.785  1.00  0.00    -0.252 OA
BRANCH  67  69
ATOM     69  O   UNL     1      -2.053  -6.217  -4.808  1.00  0.00    -0.481 OA
ATOM     70  H   UNL     1      -1.682  -6.828  -4.137  1.00  0.00     0.296 HD
ENDBRANCH  67  69
ENDBRANCH  66  67
ENDBRANCH  56  66
ENDBRANCH  53  56
ENDBRANCH  50  52
ENDBRANCH  47  50
ENDBRANCH  45  46
BRANCH  45  71
ATOM     71  C   UNL     1      -5.132   0.276  -0.126  1.00  0.00     0.037 C 
BRANCH  71  72
ATOM     72  C   UNL     1      -3.741  -0.345   0.031  1.00  0.00     0.026 C 
BRANCH  72  73
ATOM     73  C   UNL     1      -2.699   0.397  -0.803  1.00  0.00     0.146 C 
BRANCH  73  74
ATOM     74  N   UNL     1      -1.943  -0.596  -1.559  1.00  0.00    -0.254 NA
ATOM     75  C   UNL     1      -1.942  -0.502  -2.838  1.00  0.00     0.185 C 
ATOM     76  N   UNL     1      -1.254  -1.400  -3.561  1.00  0.00    -0.370 N 
ATOM     77  N   UNL     1      -2.554   0.405  -3.619  1.00  0.00    -0.370 N 
ATOM     78  H   UNL     1      -0.768  -2.124  -3.050  1.00  0.00     0.159 HD
ATOM     79  H   UNL     1      -1.324  -1.477  -4.560  1.00  0.00     0.159 HD
ATOM     80  H   UNL     1      -3.105   1.145  -3.211  1.00  0.00     0.159 HD
ATOM     81  H   UNL     1      -2.386   0.447  -4.611  1.00  0.00     0.159 HD
ENDBRANCH  73  74
ENDBRANCH  72  73
ENDBRANCH  71  72
ENDBRANCH  45  71
ENDBRANCH   3  45
TORSDOF 20
ENDMDL
