MODEL 1
REMARK VINA RESULT:    -7.895      0.000      0.000
REMARK INTER + INTRA:         -24.365
REMARK INTER:                 -19.665
REMARK INTRA:                  -4.700
REMARK UNBOUND:                -4.700
REMARK SMILES CCCCCCC[C@H](N)[C@H](O)C(=O)N[C@H](C)C(=O)N(C)[C@H](CC(C)C)C(=O)N[C@@H](Cc1ccc(O)cc1)C(=O)N[C@@H](Cc1ccc(O)cc1)C(=O)O
REMARK SMILES IDX 18 1 17 2 15 3 16 4 14 5 12 6 13 7 10 9 11 10 8 12 9 13 7 16
REMARK SMILES IDX 6 17 5 18 4 19 3 20 2 21 1 22 19 23 20 24 21 25 22 26 23 27
REMARK SMILES IDX 24 28 25 29 26 30 27 31 28 32 29 34 30 35 31 36 32 37 37 38
REMARK SMILES IDX 33 39 36 40 34 41 35 42 38 44 39 45 40 46 41 48 42 49 43 50
REMARK SMILES IDX 44 51 49 52 45 53 48 54 46 55 47 56 50 58 51 59 52 60
REMARK H PARENT 14 8 11 11 9 14 9 15 28 33 35 43 40 47 47 57 52 61
ROOT
ATOM      1  O   UNL     1      -8.802  -7.043   7.844  1.00  0.00    -0.272 OA
ATOM      2  C   UNL     1      -7.754  -7.475   8.347  1.00  0.00     0.245 C 
ENDROOT
BRANCH   2   3
ATOM      3  C   UNL     1      -6.571  -7.822   7.410  1.00  0.00     0.168 C 
ATOM      4  C   UNL     1      -7.075  -8.406   6.094  1.00  0.00     0.041 C 
BRANCH   3   5
ATOM      5  N   UNL     1      -5.624  -6.738   7.194  1.00  0.00    -0.342 N 
ATOM      6  C   UNL     1      -4.353  -6.765   7.728  1.00  0.00     0.251 C 
ATOM      7  O   UNL     1      -3.941  -7.668   8.449  1.00  0.00    -0.272 OA
ATOM      8  H   UNL     1      -5.864  -5.918   6.642  1.00  0.00     0.164 HD
BRANCH   6   9
ATOM      9  C   UNL     1      -3.484  -5.589   7.254  1.00  0.00     0.219 C 
BRANCH   9  10
ATOM     10  O   UNL     1      -3.179  -4.668   8.308  1.00  0.00    -0.382 OA
ATOM     11  H   UNL     1      -4.019  -4.175   8.434  1.00  0.00     0.211 HD
ENDBRANCH   9  10
BRANCH   9  12
ATOM     12  C   UNL     1      -2.191  -6.042   6.527  1.00  0.00     0.089 C 
BRANCH  12  13
ATOM     13  N   UNL     1      -2.521  -7.200   5.664  1.00  0.00    -0.325 NA
ATOM     14  H   UNL     1      -2.972  -7.922   6.229  1.00  0.00     0.119 HD
ATOM     15  H   UNL     1      -1.651  -7.624   5.333  1.00  0.00     0.119 HD
ENDBRANCH  12  13
BRANCH  12  16
ATOM     16  C   UNL     1      -1.461  -4.955   5.702  1.00  0.00     0.022 C 
BRANCH  16  17
ATOM     17  C   UNL     1       0.018  -4.665   5.993  1.00  0.00     0.002 C 
BRANCH  17  18
ATOM     18  C   UNL     1       0.658  -5.568   7.044  1.00  0.00     0.000 C 
BRANCH  18  19
ATOM     19  C   UNL     1       0.927  -4.873   8.385  1.00  0.00    -0.000 C 
BRANCH  19  20
ATOM     20  C   UNL     1       0.044  -5.337   9.547  1.00  0.00    -0.000 C 
BRANCH  20  21
ATOM     21  C   UNL     1       0.838  -6.012  10.670  1.00  0.00    -0.003 C 
ATOM     22  C   UNL     1       1.610  -4.993  11.493  1.00  0.00     0.004 C 
ENDBRANCH  20  21
ENDBRANCH  19  20
ENDBRANCH  18  19
ENDBRANCH  17  18
ENDBRANCH  16  17
ENDBRANCH  12  16
ENDBRANCH   9  12
ENDBRANCH   6   9
ENDBRANCH   3   5
ENDBRANCH   2   3
BRANCH   2  23
ATOM     23  N   UNL     1      -7.615  -7.526   9.730  1.00  0.00    -0.332 N 
ATOM     24  C   UNL     1      -8.112  -8.605  10.571  1.00  0.00     0.147 C 
BRANCH  23  25
ATOM     25  C   UNL     1      -6.807  -6.498  10.442  1.00  0.00     0.174 C 
BRANCH  25  26
ATOM     26  C   UNL     1      -6.408  -6.930  11.872  1.00  0.00     0.038 C 
BRANCH  26  27
ATOM     27  C   UNL     1      -4.909  -7.201  12.129  1.00  0.00    -0.015 C 
ATOM     28  C   UNL     1      -4.486  -8.606  11.701  1.00  0.00     0.007 C 
ATOM     29  C   UNL     1      -3.988  -6.152  11.511  1.00  0.00     0.007 C 
ENDBRANCH  26  27
ENDBRANCH  25  26
BRANCH  25  30
ATOM     30  C   UNL     1      -7.519  -5.127  10.383  1.00  0.00     0.243 C 
ATOM     31  O   UNL     1      -8.694  -4.990  10.718  1.00  0.00    -0.273 OA
ATOM     32  N   UNL     1      -6.756  -4.082   9.928  1.00  0.00    -0.342 N 
ATOM     33  H   UNL     1      -5.754  -4.245   9.805  1.00  0.00     0.164 HD
BRANCH  32  34
ATOM     34  C   UNL     1      -7.272  -2.718   9.780  1.00  0.00     0.175 C 
BRANCH  34  35
ATOM     35  C   UNL     1      -6.998  -1.878  11.037  1.00  0.00     0.070 C 
BRANCH  35  36
ATOM     36  C   UNL     1      -8.266  -1.396  11.705  1.00  0.00    -0.045 A 
ATOM     37  C   UNL     1      -8.927  -0.258  11.219  1.00  0.00     0.007 A 
ATOM     38  C   UNL     1      -8.785  -2.058  12.826  1.00  0.00     0.007 A 
ATOM     39  C   UNL     1     -10.090   0.203  11.837  1.00  0.00     0.046 A 
ATOM     40  C   UNL     1      -9.948  -1.596  13.446  1.00  0.00     0.046 A 
ATOM     41  C   UNL     1     -10.591  -0.470  12.945  1.00  0.00     0.115 A 
BRANCH  41  42
ATOM     42  O   UNL     1     -11.728   0.014  13.521  1.00  0.00    -0.508 OA
ATOM     43  H   UNL     1     -12.484  -0.245  12.969  1.00  0.00     0.293 HD
ENDBRANCH  41  42
ENDBRANCH  35  36
ENDBRANCH  34  35
BRANCH  34  44
ATOM     44  C   UNL     1      -6.628  -2.097   8.520  1.00  0.00     0.243 C 
ATOM     45  O   UNL     1      -6.686  -0.906   8.226  1.00  0.00    -0.273 OA
ATOM     46  N   UNL     1      -6.081  -3.032   7.666  1.00  0.00    -0.341 N 
ATOM     47  H   UNL     1      -6.161  -4.019   7.897  1.00  0.00     0.164 HD
BRANCH  46  48
ATOM     48  C   UNL     1      -5.476  -2.689   6.377  1.00  0.00     0.196 C 
BRANCH  48  49
ATOM     49  C   UNL     1      -6.489  -1.998   5.449  1.00  0.00     0.072 C 
BRANCH  49  50
ATOM     50  C   UNL     1      -6.207  -2.256   3.986  1.00  0.00    -0.045 A 
ATOM     51  C   UNL     1      -6.311  -1.208   3.059  1.00  0.00     0.007 A 
ATOM     52  C   UNL     1      -5.863  -3.535   3.533  1.00  0.00     0.007 A 
ATOM     53  C   UNL     1      -6.067  -1.437   1.705  1.00  0.00     0.046 A 
ATOM     54  C   UNL     1      -5.619  -3.765   2.177  1.00  0.00     0.046 A 
ATOM     55  C   UNL     1      -5.722  -2.712   1.274  1.00  0.00     0.115 A 
BRANCH  55  56
ATOM     56  O   UNL     1      -5.493  -2.894  -0.058  1.00  0.00    -0.508 OA
ATOM     57  H   UNL     1      -5.981  -3.682  -0.348  1.00  0.00     0.293 HD
ENDBRANCH  55  56
ENDBRANCH  49  50
ENDBRANCH  48  49
BRANCH  48  58
ATOM     58  C   UNL     1      -4.281  -1.757   6.619  1.00  0.00     0.326 C 
ATOM     59  O   UNL     1      -3.174  -2.066   7.029  1.00  0.00    -0.250 OA
BRANCH  58  60
ATOM     60  O   UNL     1      -4.535  -0.459   6.314  1.00  0.00    -0.480 OA
ATOM     61  H   UNL     1      -4.370  -0.418   5.347  1.00  0.00     0.296 HD
ENDBRANCH  58  60
ENDBRANCH  48  58
ENDBRANCH  46  48
ENDBRANCH  34  44
ENDBRANCH  32  34
ENDBRANCH  25  30
ENDBRANCH  23  25
ENDBRANCH   2  23
TORSDOF 28
ENDMDL
MODEL 2
REMARK VINA RESULT:    -7.639      2.366      6.835
REMARK INTER + INTRA:         -23.727
REMARK INTER:                 -18.948
REMARK INTRA:                  -4.779
REMARK UNBOUND:                -4.700
REMARK SMILES CCCCCCC[C@H](N)[C@H](O)C(=O)N[C@H](C)C(=O)N(C)[C@H](CC(C)C)C(=O)N[C@@H](Cc1ccc(O)cc1)C(=O)N[C@@H](Cc1ccc(O)cc1)C(=O)O
REMARK SMILES IDX 18 1 17 2 15 3 16 4 14 5 12 6 13 7 10 9 11 10 8 12 9 13 7 16
REMARK SMILES IDX 6 17 5 18 4 19 3 20 2 21 1 22 19 23 20 24 21 25 22 26 23 27
REMARK SMILES IDX 24 28 25 29 26 30 27 31 28 32 29 34 30 35 31 36 32 37 37 38
REMARK SMILES IDX 33 39 36 40 34 41 35 42 38 44 39 45 40 46 41 48 42 49 43 50
REMARK SMILES IDX 44 51 49 52 45 53 48 54 46 55 47 56 50 58 51 59 52 60
REMARK H PARENT 14 8 11 11 9 14 9 15 28 33 35 43 40 47 47 57 52 61
ROOT
ATOM      1  O   UNL     1      -7.080  -5.347  10.116  1.00  0.00    -0.272 OA
ATOM      2  C   UNL     1      -7.485  -4.424  10.838  1.00  0.00     0.245 C 
ENDROOT
BRANCH   2   3
ATOM      3  C   UNL     1      -6.742  -4.143  12.168  1.00  0.00     0.168 C 
ATOM      4  C   UNL     1      -7.717  -3.683  13.246  1.00  0.00     0.041 C 
BRANCH   3   5
ATOM      5  N   UNL     1      -5.891  -5.226  12.633  1.00  0.00    -0.342 N 
ATOM      6  C   UNL     1      -6.413  -6.377  13.185  1.00  0.00     0.251 C 
ATOM      7  O   UNL     1      -7.613  -6.557  13.364  1.00  0.00    -0.272 OA
ATOM      8  H   UNL     1      -4.877  -5.177  12.570  1.00  0.00     0.164 HD
BRANCH   6   9
ATOM      9  C   UNL     1      -5.340  -7.439  13.472  1.00  0.00     0.219 C 
BRANCH   9  10
ATOM     10  O   UNL     1      -5.577  -8.148  14.694  1.00  0.00    -0.382 OA
ATOM     11  H   UNL     1      -4.682  -8.230  15.092  1.00  0.00     0.211 HD
ENDBRANCH   9  10
BRANCH   9  12
ATOM     12  C   UNL     1      -5.129  -8.426  12.294  1.00  0.00     0.089 C 
BRANCH  12  13
ATOM     13  N   UNL     1      -6.270  -8.288  11.360  1.00  0.00    -0.325 NA
ATOM     14  H   UNL     1      -6.840  -9.135  11.399  1.00  0.00     0.119 HD
ATOM     15  H   UNL     1      -5.911  -8.252  10.403  1.00  0.00     0.119 HD
ENDBRANCH  12  13
BRANCH  12  16
ATOM     16  C   UNL     1      -3.793  -8.289  11.526  1.00  0.00     0.022 C 
BRANCH  16  17
ATOM     17  C   UNL     1      -2.645  -7.492  12.159  1.00  0.00     0.002 C 
BRANCH  17  18
ATOM     18  C   UNL     1      -1.249  -7.872  11.670  1.00  0.00     0.000 C 
BRANCH  18  19
ATOM     19  C   UNL     1      -0.139  -6.930  12.156  1.00  0.00    -0.000 C 
BRANCH  19  20
ATOM     20  C   UNL     1      -0.238  -5.490  11.646  1.00  0.00    -0.000 C 
BRANCH  20  21
ATOM     21  C   UNL     1       1.106  -4.926  11.178  1.00  0.00    -0.003 C 
ATOM     22  C   UNL     1       1.193  -4.886   9.660  1.00  0.00     0.004 C 
ENDBRANCH  20  21
ENDBRANCH  19  20
ENDBRANCH  18  19
ENDBRANCH  17  18
ENDBRANCH  16  17
ENDBRANCH  12  16
ENDBRANCH   9  12
ENDBRANCH   6   9
ENDBRANCH   3   5
ENDBRANCH   2   3
BRANCH   2  23
ATOM     23  N   UNL     1      -8.506  -3.590  10.394  1.00  0.00    -0.332 N 
ATOM     24  C   UNL     1      -9.915  -3.769  10.710  1.00  0.00     0.147 C 
BRANCH  23  25
ATOM     25  C   UNL     1      -8.185  -2.346   9.642  1.00  0.00     0.174 C 
BRANCH  25  26
ATOM     26  C   UNL     1      -9.051  -1.140  10.078  1.00  0.00     0.038 C 
BRANCH  26  27
ATOM     27  C   UNL     1      -8.332   0.220  10.229  1.00  0.00    -0.015 C 
ATOM     28  C   UNL     1      -6.881   0.169   9.753  1.00  0.00     0.007 C 
ATOM     29  C   UNL     1      -9.075   1.377   9.566  1.00  0.00     0.007 C 
ENDBRANCH  26  27
ENDBRANCH  25  26
BRANCH  25  30
ATOM     30  C   UNL     1      -8.220  -2.618   8.121  1.00  0.00     0.243 C 
ATOM     31  O   UNL     1      -9.228  -2.413   7.447  1.00  0.00    -0.273 OA
ATOM     32  N   UNL     1      -7.059  -3.108   7.580  1.00  0.00    -0.342 N 
ATOM     33  H   UNL     1      -6.226  -3.117   8.174  1.00  0.00     0.164 HD
BRANCH  32  34
ATOM     34  C   UNL     1      -6.918  -3.449   6.162  1.00  0.00     0.175 C 
BRANCH  34  35
ATOM     35  C   UNL     1      -5.600  -2.908   5.586  1.00  0.00     0.070 C 
BRANCH  35  36
ATOM     36  C   UNL     1      -5.814  -1.835   4.542  1.00  0.00    -0.045 A 
ATOM     37  C   UNL     1      -5.972  -2.189   3.194  1.00  0.00     0.007 A 
ATOM     38  C   UNL     1      -5.835  -0.480   4.898  1.00  0.00     0.007 A 
ATOM     39  C   UNL     1      -6.157  -1.205   2.222  1.00  0.00     0.046 A 
ATOM     40  C   UNL     1      -6.018   0.506   3.926  1.00  0.00     0.046 A 
ATOM     41  C   UNL     1      -6.179   0.133   2.595  1.00  0.00     0.115 A 
BRANCH  41  42
ATOM     42  O   UNL     1      -6.359   1.064   1.615  1.00  0.00    -0.508 OA
ATOM     43  H   UNL     1      -5.631   1.705   1.667  1.00  0.00     0.293 HD
ENDBRANCH  41  42
ENDBRANCH  35  36
ENDBRANCH  34  35
BRANCH  34  44
ATOM     44  C   UNL     1      -7.020  -4.985   6.026  1.00  0.00     0.243 C 
ATOM     45  O   UNL     1      -7.565  -5.564   5.091  1.00  0.00    -0.273 OA
ATOM     46  N   UNL     1      -6.552  -5.665   7.131  1.00  0.00    -0.341 N 
ATOM     47  H   UNL     1      -6.216  -5.136   7.932  1.00  0.00     0.164 HD
BRANCH  46  48
ATOM     48  C   UNL     1      -6.607  -7.123   7.262  1.00  0.00     0.196 C 
BRANCH  48  49
ATOM     49  C   UNL     1      -5.412  -7.658   8.069  1.00  0.00     0.072 C 
BRANCH  49  50
ATOM     50  C   UNL     1      -4.104  -7.019   7.664  1.00  0.00    -0.045 A 
ATOM     51  C   UNL     1      -3.380  -6.258   8.593  1.00  0.00     0.007 A 
ATOM     52  C   UNL     1      -3.607  -7.157   6.361  1.00  0.00     0.007 A 
ATOM     53  C   UNL     1      -2.178  -5.652   8.227  1.00  0.00     0.046 A 
ATOM     54  C   UNL     1      -2.404  -6.550   5.994  1.00  0.00     0.046 A 
ATOM     55  C   UNL     1      -1.699  -5.803   6.931  1.00  0.00     0.115 A 
BRANCH  55  56
ATOM     56  O   UNL     1      -0.521  -5.194   6.613  1.00  0.00    -0.508 OA
ATOM     57  H   UNL     1      -0.215  -4.696   7.387  1.00  0.00     0.293 HD
ENDBRANCH  55  56
ENDBRANCH  49  50
ENDBRANCH  48  49
BRANCH  48  58
ATOM     58  C   UNL     1      -7.917  -7.512   7.962  1.00  0.00     0.326 C 
ATOM     59  O   UNL     1      -8.055  -8.292   8.891  1.00  0.00    -0.250 OA
BRANCH  58  60
ATOM     60  O   UNL     1      -9.007  -6.878   7.462  1.00  0.00    -0.480 OA
ATOM     61  H   UNL     1      -8.623  -6.234   6.827  1.00  0.00     0.296 HD
ENDBRANCH  58  60
ENDBRANCH  48  58
ENDBRANCH  46  48
ENDBRANCH  34  44
ENDBRANCH  32  34
ENDBRANCH  25  30
ENDBRANCH  23  25
ENDBRANCH   2  23
TORSDOF 28
ENDMDL
MODEL 3
REMARK VINA RESULT:    -7.624      2.646      4.380
REMARK INTER + INTRA:         -23.689
REMARK INTER:                 -16.950
REMARK INTRA:                  -6.738
REMARK UNBOUND:                -4.700
REMARK SMILES CCCCCCC[C@H](N)[C@H](O)C(=O)N[C@H](C)C(=O)N(C)[C@H](CC(C)C)C(=O)N[C@@H](Cc1ccc(O)cc1)C(=O)N[C@@H](Cc1ccc(O)cc1)C(=O)O
REMARK SMILES IDX 18 1 17 2 15 3 16 4 14 5 12 6 13 7 10 9 11 10 8 12 9 13 7 16
REMARK SMILES IDX 6 17 5 18 4 19 3 20 2 21 1 22 19 23 20 24 21 25 22 26 23 27
REMARK SMILES IDX 24 28 25 29 26 30 27 31 28 32 29 34 30 35 31 36 32 37 37 38
REMARK SMILES IDX 33 39 36 40 34 41 35 42 38 44 39 45 40 46 41 48 42 49 43 50
REMARK SMILES IDX 44 51 49 52 45 53 48 54 46 55 47 56 50 58 51 59 52 60
REMARK H PARENT 14 8 11 11 9 14 9 15 28 33 35 43 40 47 47 57 52 61
ROOT
ATOM      1  O   UNL     1      -6.503  -4.979   7.793  1.00  0.00    -0.272 OA
ATOM      2  C   UNL     1      -6.257  -5.811   8.679  1.00  0.00     0.245 C 
ENDROOT
BRANCH   2   3
ATOM      3  C   UNL     1      -5.447  -7.076   8.303  1.00  0.00     0.168 C 
ATOM      4  C   UNL     1      -6.376  -8.208   7.876  1.00  0.00     0.041 C 
BRANCH   3   5
ATOM      5  N   UNL     1      -4.382  -6.855   7.336  1.00  0.00    -0.342 N 
ATOM      6  C   UNL     1      -3.150  -6.361   7.711  1.00  0.00     0.251 C 
ATOM      7  O   UNL     1      -2.873  -6.035   8.860  1.00  0.00    -0.272 OA
ATOM      8  H   UNL     1      -4.506  -7.056   6.347  1.00  0.00     0.164 HD
BRANCH   6   9
ATOM      9  C   UNL     1      -2.140  -6.345   6.553  1.00  0.00     0.219 C 
BRANCH   9  10
ATOM     10  O   UNL     1      -2.525  -7.201   5.470  1.00  0.00    -0.382 OA
ATOM     11  H   UNL     1      -3.463  -6.958   5.307  1.00  0.00     0.211 HD
ENDBRANCH   9  10
BRANCH   9  12
ATOM     12  C   UNL     1      -1.825  -4.915   6.039  1.00  0.00     0.089 C 
BRANCH  12  13
ATOM     13  N   UNL     1      -2.879  -3.999   6.532  1.00  0.00    -0.325 NA
ATOM     14  H   UNL     1      -2.546  -3.527   7.374  1.00  0.00     0.119 HD
ATOM     15  H   UNL     1      -3.683  -4.553   6.836  1.00  0.00     0.119 HD
ENDBRANCH  12  13
BRANCH  12  16
ATOM     16  C   UNL     1      -0.426  -4.359   6.398  1.00  0.00     0.022 C 
BRANCH  16  17
ATOM     17  C   UNL     1       0.496  -5.184   7.306  1.00  0.00     0.002 C 
BRANCH  17  18
ATOM     18  C   UNL     1       0.714  -4.603   8.702  1.00  0.00     0.000 C 
BRANCH  18  19
ATOM     19  C   UNL     1       0.795  -5.659   9.812  1.00  0.00    -0.000 C 
BRANCH  19  20
ATOM     20  C   UNL     1       0.920  -5.101  11.233  1.00  0.00    -0.000 C 
BRANCH  20  21
ATOM     21  C   UNL     1       0.243  -5.983  12.285  1.00  0.00    -0.003 C 
ATOM     22  C   UNL     1      -1.082  -5.389  12.738  1.00  0.00     0.004 C 
ENDBRANCH  20  21
ENDBRANCH  19  20
ENDBRANCH  18  19
ENDBRANCH  17  18
ENDBRANCH  16  17
ENDBRANCH  12  16
ENDBRANCH   9  12
ENDBRANCH   6   9
ENDBRANCH   3   5
ENDBRANCH   2   3
BRANCH   2  23
ATOM     23  N   UNL     1      -6.600  -5.542  10.000  1.00  0.00    -0.332 N 
ATOM     24  C   UNL     1      -7.959  -5.561  10.520  1.00  0.00     0.147 C 
BRANCH  23  25
ATOM     25  C   UNL     1      -5.540  -5.335  11.023  1.00  0.00     0.174 C 
BRANCH  25  26
ATOM     26  C   UNL     1      -5.967  -5.800  12.436  1.00  0.00     0.038 C 
BRANCH  26  27
ATOM     27  C   UNL     1      -5.267  -7.056  13.001  1.00  0.00    -0.015 C 
ATOM     28  C   UNL     1      -4.482  -7.818  11.934  1.00  0.00     0.007 C 
ATOM     29  C   UNL     1      -4.385  -6.766  14.213  1.00  0.00     0.007 C 
ENDBRANCH  26  27
ENDBRANCH  25  26
BRANCH  25  30
ATOM     30  C   UNL     1      -5.032  -3.876  10.976  1.00  0.00     0.243 C 
ATOM     31  O   UNL     1      -5.520  -2.995  11.682  1.00  0.00    -0.273 OA
ATOM     32  N   UNL     1      -4.011  -3.631  10.094  1.00  0.00    -0.342 N 
ATOM     33  H   UNL     1      -3.566  -4.438   9.649  1.00  0.00     0.164 HD
BRANCH  32  34
ATOM     34  C   UNL     1      -3.424  -2.303   9.896  1.00  0.00     0.175 C 
BRANCH  34  35
ATOM     35  C   UNL     1      -1.891  -2.376   9.814  1.00  0.00     0.070 C 
BRANCH  35  36
ATOM     36  C   UNL     1      -1.215  -1.929  11.090  1.00  0.00    -0.045 A 
ATOM     37  C   UNL     1      -1.946  -1.863  12.286  1.00  0.00     0.007 A 
ATOM     38  C   UNL     1       0.135  -1.554  11.095  1.00  0.00     0.007 A 
ATOM     39  C   UNL     1      -1.334  -1.439  13.466  1.00  0.00     0.046 A 
ATOM     40  C   UNL     1       0.748  -1.127  12.275  1.00  0.00     0.046 A 
ATOM     41  C   UNL     1       0.007  -1.075  13.451  1.00  0.00     0.115 A 
BRANCH  41  42
ATOM     42  O   UNL     1       0.566  -0.663  14.625  1.00  0.00    -0.508 OA
ATOM     43  H   UNL     1       0.737  -1.447  15.173  1.00  0.00     0.293 HD
ENDBRANCH  41  42
ENDBRANCH  35  36
ENDBRANCH  34  35
BRANCH  34  44
ATOM     44  C   UNL     1      -4.042  -1.692   8.619  1.00  0.00     0.243 C 
ATOM     45  O   UNL     1      -3.441  -0.957   7.840  1.00  0.00    -0.273 OA
ATOM     46  N   UNL     1      -5.392  -1.941   8.490  1.00  0.00    -0.341 N 
ATOM     47  H   UNL     1      -5.872  -2.458   9.222  1.00  0.00     0.164 HD
BRANCH  46  48
ATOM     48  C   UNL     1      -6.209  -1.408   7.397  1.00  0.00     0.196 C 
BRANCH  48  49
ATOM     49  C   UNL     1      -5.979  -2.190   6.093  1.00  0.00     0.072 C 
BRANCH  49  50
ATOM     50  C   UNL     1      -6.055  -1.311   4.865  1.00  0.00    -0.045 A 
ATOM     51  C   UNL     1      -6.327  -1.880   3.613  1.00  0.00     0.007 A 
ATOM     52  C   UNL     1      -5.836   0.070   4.953  1.00  0.00     0.007 A 
ATOM     53  C   UNL     1      -6.387  -1.081   2.472  1.00  0.00     0.046 A 
ATOM     54  C   UNL     1      -5.895   0.871   3.810  1.00  0.00     0.046 A 
ATOM     55  C   UNL     1      -6.171   0.288   2.578  1.00  0.00     0.115 A 
BRANCH  55  56
ATOM     56  O   UNL     1      -6.236   1.034   1.439  1.00  0.00    -0.508 OA
ATOM     57  H   UNL     1      -6.457   1.946   1.683  1.00  0.00     0.293 HD
ENDBRANCH  55  56
ENDBRANCH  49  50
ENDBRANCH  48  49
BRANCH  48  58
ATOM     58  C   UNL     1      -7.689  -1.492   7.793  1.00  0.00     0.326 C 
ATOM     59  O   UNL     1      -8.512  -0.591   7.774  1.00  0.00    -0.250 OA
BRANCH  58  60
ATOM     60  O   UNL     1      -8.075  -2.732   8.186  1.00  0.00    -0.480 OA
ATOM     61  H   UNL     1      -8.760  -2.551   8.866  1.00  0.00     0.296 HD
ENDBRANCH  58  60
ENDBRANCH  48  58
ENDBRANCH  46  48
ENDBRANCH  34  44
ENDBRANCH  32  34
ENDBRANCH  25  30
ENDBRANCH  23  25
ENDBRANCH   2  23
TORSDOF 28
ENDMDL
MODEL 4
REMARK VINA RESULT:    -7.613      2.551      8.567
REMARK INTER + INTRA:         -23.662
REMARK INTER:                 -17.132
REMARK INTRA:                  -6.530
REMARK UNBOUND:                -4.700
REMARK SMILES CCCCCCC[C@H](N)[C@H](O)C(=O)N[C@H](C)C(=O)N(C)[C@H](CC(C)C)C(=O)N[C@@H](Cc1ccc(O)cc1)C(=O)N[C@@H](Cc1ccc(O)cc1)C(=O)O
REMARK SMILES IDX 18 1 17 2 15 3 16 4 14 5 12 6 13 7 10 9 11 10 8 12 9 13 7 16
REMARK SMILES IDX 6 17 5 18 4 19 3 20 2 21 1 22 19 23 20 24 21 25 22 26 23 27
REMARK SMILES IDX 24 28 25 29 26 30 27 31 28 32 29 34 30 35 31 36 32 37 37 38
REMARK SMILES IDX 33 39 36 40 34 41 35 42 38 44 39 45 40 46 41 48 42 49 43 50
REMARK SMILES IDX 44 51 49 52 45 53 48 54 46 55 47 56 50 58 51 59 52 60
REMARK H PARENT 14 8 11 11 9 14 9 15 28 33 35 43 40 47 47 57 52 61
ROOT
ATOM      1  O   UNL     1      -9.360  -5.295   5.987  1.00  0.00    -0.272 OA
ATOM      2  C   UNL     1      -8.243  -5.264   6.525  1.00  0.00     0.245 C 
ENDROOT
BRANCH   2   3
ATOM      3  C   UNL     1      -8.133  -4.727   7.974  1.00  0.00     0.168 C 
ATOM      4  C   UNL     1      -7.410  -5.728   8.869  1.00  0.00     0.041 C 
BRANCH   3   5
ATOM      5  N   UNL     1      -7.568  -3.391   8.089  1.00  0.00    -0.342 N 
ATOM      6  C   UNL     1      -8.362  -2.264   8.091  1.00  0.00     0.251 C 
ATOM      7  O   UNL     1      -9.581  -2.294   7.958  1.00  0.00    -0.272 OA
ATOM      8  H   UNL     1      -6.566  -3.238   8.170  1.00  0.00     0.164 HD
BRANCH   6   9
ATOM      9  C   UNL     1      -7.566  -0.978   8.366  1.00  0.00     0.219 C 
BRANCH   9  10
ATOM     10  O   UNL     1      -8.036   0.138   7.599  1.00  0.00    -0.382 OA
ATOM     11  H   UNL     1      -8.853  -0.203   7.173  1.00  0.00     0.211 HD
ENDBRANCH   9  10
BRANCH   9  12
ATOM     12  C   UNL     1      -7.492  -0.617   9.873  1.00  0.00     0.089 C 
BRANCH  12  13
ATOM     13  N   UNL     1      -8.239  -1.643  10.636  1.00  0.00    -0.325 NA
ATOM     14  H   UNL     1      -7.855  -2.565  10.425  1.00  0.00     0.119 HD
ATOM     15  H   UNL     1      -9.203  -1.671  10.295  1.00  0.00     0.119 HD
ENDBRANCH  12  13
BRANCH  12  16
ATOM     16  C   UNL     1      -6.070  -0.449  10.461  1.00  0.00     0.022 C 
BRANCH  16  17
ATOM     17  C   UNL     1      -4.892  -0.201   9.508  1.00  0.00     0.002 C 
BRANCH  17  18
ATOM     18  C   UNL     1      -3.603   0.262  10.183  1.00  0.00     0.000 C 
BRANCH  18  19
ATOM     19  C   UNL     1      -2.325  -0.194   9.468  1.00  0.00    -0.000 C 
BRANCH  19  20
ATOM     20  C   UNL     1      -2.357  -0.077   7.942  1.00  0.00    -0.000 C 
BRANCH  20  21
ATOM     21  C   UNL     1      -2.349  -1.435   7.235  1.00  0.00    -0.003 C 
ATOM     22  C   UNL     1      -3.757  -1.878   6.871  1.00  0.00     0.004 C 
ENDBRANCH  20  21
ENDBRANCH  19  20
ENDBRANCH  18  19
ENDBRANCH  17  18
ENDBRANCH  16  17
ENDBRANCH  12  16
ENDBRANCH   9  12
ENDBRANCH   6   9
ENDBRANCH   3   5
ENDBRANCH   2   3
BRANCH   2  23
ATOM     23  N   UNL     1      -7.144  -5.818   5.877  1.00  0.00    -0.332 N 
ATOM     24  C   UNL     1      -7.026  -7.219   5.502  1.00  0.00     0.147 C 
BRANCH  23  25
ATOM     25  C   UNL     1      -6.036  -4.946   5.401  1.00  0.00     0.174 C 
BRANCH  25  26
ATOM     26  C   UNL     1      -6.031  -4.764   3.864  1.00  0.00     0.038 C 
BRANCH  26  27
ATOM     27  C   UNL     1      -5.499  -3.419   3.321  1.00  0.00    -0.015 C 
ATOM     28  C   UNL     1      -5.445  -3.387   1.794  1.00  0.00     0.007 C 
ATOM     29  C   UNL     1      -6.253  -2.206   3.857  1.00  0.00     0.007 C 
ENDBRANCH  26  27
ENDBRANCH  25  26
BRANCH  25  30
ATOM     30  C   UNL     1      -4.687  -5.439   5.972  1.00  0.00     0.243 C 
ATOM     31  O   UNL     1      -3.819  -5.934   5.255  1.00  0.00    -0.273 OA
ATOM     32  N   UNL     1      -4.528  -5.295   7.326  1.00  0.00    -0.342 N 
ATOM     33  H   UNL     1      -5.231  -4.748   7.830  1.00  0.00     0.164 HD
BRANCH  32  34
ATOM     34  C   UNL     1      -3.327  -5.731   8.044  1.00  0.00     0.175 C 
BRANCH  34  35
ATOM     35  C   UNL     1      -2.819  -4.640   8.998  1.00  0.00     0.070 C 
BRANCH  35  36
ATOM     36  C   UNL     1      -1.319  -4.455   8.931  1.00  0.00    -0.045 A 
ATOM     37  C   UNL     1      -0.710  -3.401   9.627  1.00  0.00     0.007 A 
ATOM     38  C   UNL     1      -0.524  -5.313   8.160  1.00  0.00     0.007 A 
ATOM     39  C   UNL     1       0.671  -3.214   9.560  1.00  0.00     0.046 A 
ATOM     40  C   UNL     1       0.859  -5.126   8.091  1.00  0.00     0.046 A 
ATOM     41  C   UNL     1       1.444  -4.078   8.793  1.00  0.00     0.115 A 
BRANCH  41  42
ATOM     42  O   UNL     1       2.789  -3.859   8.752  1.00  0.00    -0.508 OA
ATOM     43  H   UNL     1       3.240  -4.691   8.974  1.00  0.00     0.293 HD
ENDBRANCH  41  42
ENDBRANCH  35  36
ENDBRANCH  34  35
BRANCH  34  44
ATOM     44  C   UNL     1      -3.665  -7.040   8.792  1.00  0.00     0.243 C 
ATOM     45  O   UNL     1      -3.976  -8.093   8.241  1.00  0.00    -0.273 OA
ATOM     46  N   UNL     1      -3.716  -6.893  10.162  1.00  0.00    -0.341 N 
ATOM     47  H   UNL     1      -3.565  -5.971  10.565  1.00  0.00     0.164 HD
BRANCH  46  48
ATOM     48  C   UNL     1      -4.083  -7.976  11.076  1.00  0.00     0.196 C 
BRANCH  48  49
ATOM     49  C   UNL     1      -3.378  -7.825  12.435  1.00  0.00     0.072 C 
BRANCH  49  50
ATOM     50  C   UNL     1      -2.004  -7.206  12.312  1.00  0.00    -0.045 A 
ATOM     51  C   UNL     1      -1.760  -5.935  12.851  1.00  0.00     0.007 A 
ATOM     52  C   UNL     1      -0.969  -7.874  11.646  1.00  0.00     0.007 A 
ATOM     53  C   UNL     1      -0.500  -5.348  12.733  1.00  0.00     0.046 A 
ATOM     54  C   UNL     1       0.292  -7.286  11.526  1.00  0.00     0.046 A 
ATOM     55  C   UNL     1       0.516  -6.027  12.072  1.00  0.00     0.115 A 
BRANCH  55  56
ATOM     56  O   UNL     1       1.732  -5.418  11.976  1.00  0.00    -0.508 OA
ATOM     57  H   UNL     1       2.272  -5.691  12.735  1.00  0.00     0.293 HD
ENDBRANCH  55  56
ENDBRANCH  49  50
ENDBRANCH  48  49
BRANCH  48  58
ATOM     58  C   UNL     1      -5.604  -7.964  11.281  1.00  0.00     0.326 C 
ATOM     59  O   UNL     1      -6.229  -7.363  12.140  1.00  0.00    -0.250 OA
BRANCH  58  60
ATOM     60  O   UNL     1      -6.279  -8.709  10.369  1.00  0.00    -0.480 OA
ATOM     61  H   UNL     1      -6.994  -8.107  10.071  1.00  0.00     0.296 HD
ENDBRANCH  58  60
ENDBRANCH  48  58
ENDBRANCH  46  48
ENDBRANCH  34  44
ENDBRANCH  32  34
ENDBRANCH  25  30
ENDBRANCH  23  25
ENDBRANCH   2  23
TORSDOF 28
ENDMDL
MODEL 5
REMARK VINA RESULT:    -7.527      1.901      3.507
REMARK INTER + INTRA:         -23.448
REMARK INTER:                 -17.245
REMARK INTRA:                  -6.203
REMARK UNBOUND:                -4.700
REMARK SMILES CCCCCCC[C@H](N)[C@H](O)C(=O)N[C@H](C)C(=O)N(C)[C@H](CC(C)C)C(=O)N[C@@H](Cc1ccc(O)cc1)C(=O)N[C@@H](Cc1ccc(O)cc1)C(=O)O
REMARK SMILES IDX 18 1 17 2 15 3 16 4 14 5 12 6 13 7 10 9 11 10 8 12 9 13 7 16
REMARK SMILES IDX 6 17 5 18 4 19 3 20 2 21 1 22 19 23 20 24 21 25 22 26 23 27
REMARK SMILES IDX 24 28 25 29 26 30 27 31 28 32 29 34 30 35 31 36 32 37 37 38
REMARK SMILES IDX 33 39 36 40 34 41 35 42 38 44 39 45 40 46 41 48 42 49 43 50
REMARK SMILES IDX 44 51 49 52 45 53 48 54 46 55 47 56 50 58 51 59 52 60
REMARK H PARENT 14 8 11 11 9 14 9 15 28 33 35 43 40 47 47 57 52 61
ROOT
ATOM      1  O   UNL     1      -5.332  -7.035  12.762  1.00  0.00    -0.272 OA
ATOM      2  C   UNL     1      -5.810  -6.704  11.667  1.00  0.00     0.245 C 
ENDROOT
BRANCH   2   3
ATOM      3  C   UNL     1      -6.617  -7.755  10.864  1.00  0.00     0.168 C 
ATOM      4  C   UNL     1      -7.805  -8.261  11.675  1.00  0.00     0.041 C 
BRANCH   3   5
ATOM      5  N   UNL     1      -7.014  -7.331   9.530  1.00  0.00    -0.342 N 
ATOM      6  C   UNL     1      -7.170  -8.231   8.497  1.00  0.00     0.251 C 
ATOM      7  O   UNL     1      -6.950  -9.432   8.607  1.00  0.00    -0.272 OA
ATOM      8  H   UNL     1      -7.191  -6.354   9.308  1.00  0.00     0.164 HD
BRANCH   6   9
ATOM      9  C   UNL     1      -7.730  -7.580   7.222  1.00  0.00     0.219 C 
BRANCH   9  10
ATOM     10  O   UNL     1      -8.944  -6.858   7.457  1.00  0.00    -0.382 OA
ATOM     11  H   UNL     1      -8.669  -6.132   8.059  1.00  0.00     0.211 HD
ENDBRANCH   9  10
BRANCH   9  12
ATOM     12  C   UNL     1      -6.693  -6.690   6.487  1.00  0.00     0.089 C 
BRANCH  12  13
ATOM     13  N   UNL     1      -6.458  -5.477   7.302  1.00  0.00    -0.325 NA
ATOM     14  H   UNL     1      -7.129  -5.454   8.072  1.00  0.00     0.119 HD
ATOM     15  H   UNL     1      -6.671  -4.651   6.737  1.00  0.00     0.119 HD
ENDBRANCH  12  13
BRANCH  12  16
ATOM     16  C   UNL     1      -5.346  -7.366   6.137  1.00  0.00     0.022 C 
BRANCH  16  17
ATOM     17  C   UNL     1      -4.081  -6.950   6.900  1.00  0.00     0.002 C 
BRANCH  17  18
ATOM     18  C   UNL     1      -2.870  -6.643   6.023  1.00  0.00     0.000 C 
BRANCH  18  19
ATOM     19  C   UNL     1      -2.876  -5.231   5.422  1.00  0.00    -0.000 C 
BRANCH  19  20
ATOM     20  C   UNL     1      -3.073  -4.096   6.431  1.00  0.00    -0.000 C 
BRANCH  20  21
ATOM     21  C   UNL     1      -1.764  -3.398   6.812  1.00  0.00    -0.003 C 
ATOM     22  C   UNL     1      -0.959  -4.231   7.798  1.00  0.00     0.004 C 
ENDBRANCH  20  21
ENDBRANCH  19  20
ENDBRANCH  18  19
ENDBRANCH  17  18
ENDBRANCH  16  17
ENDBRANCH  12  16
ENDBRANCH   9  12
ENDBRANCH   6   9
ENDBRANCH   3   5
ENDBRANCH   2   3
BRANCH   2  23
ATOM     23  N   UNL     1      -5.721  -5.384  11.239  1.00  0.00    -0.332 N 
ATOM     24  C   UNL     1      -4.748  -4.892  10.276  1.00  0.00     0.147 C 
BRANCH  23  25
ATOM     25  C   UNL     1      -6.740  -4.386  11.666  1.00  0.00     0.174 C 
BRANCH  25  26
ATOM     26  C   UNL     1      -7.521  -4.825  12.928  1.00  0.00     0.038 C 
BRANCH  26  27
ATOM     27  C   UNL     1      -8.603  -3.855  13.453  1.00  0.00    -0.015 C 
ATOM     28  C   UNL     1      -9.497  -4.497  14.514  1.00  0.00     0.007 C 
ATOM     29  C   UNL     1      -8.039  -2.530  13.957  1.00  0.00     0.007 C 
ENDBRANCH  26  27
ENDBRANCH  25  26
BRANCH  25  30
ATOM     30  C   UNL     1      -7.649  -4.009  10.473  1.00  0.00     0.243 C 
ATOM     31  O   UNL     1      -8.287  -4.856   9.850  1.00  0.00    -0.273 OA
ATOM     32  N   UNL     1      -7.689  -2.676  10.156  1.00  0.00    -0.342 N 
ATOM     33  H   UNL     1      -7.246  -2.021  10.806  1.00  0.00     0.164 HD
BRANCH  32  34
ATOM     34  C   UNL     1      -8.474  -2.141   9.040  1.00  0.00     0.175 C 
BRANCH  34  35
ATOM     35  C   UNL     1      -9.051  -0.757   9.376  1.00  0.00     0.070 C 
BRANCH  35  36
ATOM     36  C   UNL     1      -9.800  -0.739  10.690  1.00  0.00    -0.045 A 
ATOM     37  C   UNL     1      -9.608   0.319  11.592  1.00  0.00     0.007 A 
ATOM     38  C   UNL     1     -10.671  -1.780  11.035  1.00  0.00     0.007 A 
ATOM     39  C   UNL     1     -10.285   0.337  12.812  1.00  0.00     0.046 A 
ATOM     40  C   UNL     1     -11.348  -1.763  12.257  1.00  0.00     0.046 A 
ATOM     41  C   UNL     1     -11.149  -0.702  13.135  1.00  0.00     0.115 A 
BRANCH  41  42
ATOM     42  O   UNL     1     -11.787  -0.648  14.338  1.00  0.00    -0.508 OA
ATOM     43  H   UNL     1     -11.149  -0.353  15.009  1.00  0.00     0.293 HD
ENDBRANCH  41  42
ENDBRANCH  35  36
ENDBRANCH  34  35
BRANCH  34  44
ATOM     44  C   UNL     1      -7.564  -2.099   7.792  1.00  0.00     0.243 C 
ATOM     45  O   UNL     1      -7.707  -2.816   6.805  1.00  0.00    -0.273 OA
ATOM     46  N   UNL     1      -6.477  -1.263   7.933  1.00  0.00    -0.341 N 
ATOM     47  H   UNL     1      -6.338  -0.777   8.815  1.00  0.00     0.164 HD
BRANCH  46  48
ATOM     48  C   UNL     1      -5.440  -1.110   6.910  1.00  0.00     0.196 C 
BRANCH  48  49
ATOM     49  C   UNL     1      -5.830  -0.045   5.871  1.00  0.00     0.072 C 
BRANCH  49  50
ATOM     50  C   UNL     1      -5.859  -0.591   4.461  1.00  0.00    -0.045 A 
ATOM     51  C   UNL     1      -5.500  -1.925   4.220  1.00  0.00     0.007 A 
ATOM     52  C   UNL     1      -6.219   0.224   3.380  1.00  0.00     0.007 A 
ATOM     53  C   UNL     1      -5.510  -2.436   2.922  1.00  0.00     0.046 A 
ATOM     54  C   UNL     1      -6.228  -0.287   2.080  1.00  0.00     0.046 A 
ATOM     55  C   UNL     1      -5.873  -1.614   1.863  1.00  0.00     0.115 A 
BRANCH  55  56
ATOM     56  O   UNL     1      -5.868  -2.151   0.609  1.00  0.00    -0.508 OA
ATOM     57  H   UNL     1      -6.714  -2.604   0.467  1.00  0.00     0.293 HD
ENDBRANCH  55  56
ENDBRANCH  49  50
ENDBRANCH  48  49
BRANCH  48  58
ATOM     58  C   UNL     1      -4.124  -0.708   7.589  1.00  0.00     0.326 C 
ATOM     59  O   UNL     1      -3.786  -0.936   8.740  1.00  0.00    -0.250 OA
BRANCH  58  60
ATOM     60  O   UNL     1      -3.274  -0.039   6.770  1.00  0.00    -0.480 OA
ATOM     61  H   UNL     1      -2.729  -0.755   6.376  1.00  0.00     0.296 HD
ENDBRANCH  58  60
ENDBRANCH  48  58
ENDBRANCH  46  48
ENDBRANCH  34  44
ENDBRANCH  32  34
ENDBRANCH  25  30
ENDBRANCH  23  25
ENDBRANCH   2  23
TORSDOF 28
ENDMDL
MODEL 6
REMARK VINA RESULT:    -7.421      3.111      7.587
REMARK INTER + INTRA:         -23.183
REMARK INTER:                 -18.214
REMARK INTRA:                  -4.969
REMARK UNBOUND:                -4.700
REMARK SMILES CCCCCCC[C@H](N)[C@H](O)C(=O)N[C@H](C)C(=O)N(C)[C@H](CC(C)C)C(=O)N[C@@H](Cc1ccc(O)cc1)C(=O)N[C@@H](Cc1ccc(O)cc1)C(=O)O
REMARK SMILES IDX 18 1 17 2 15 3 16 4 14 5 12 6 13 7 10 9 11 10 8 12 9 13 7 16
REMARK SMILES IDX 6 17 5 18 4 19 3 20 2 21 1 22 19 23 20 24 21 25 22 26 23 27
REMARK SMILES IDX 24 28 25 29 26 30 27 31 28 32 29 34 30 35 31 36 32 37 37 38
REMARK SMILES IDX 33 39 36 40 34 41 35 42 38 44 39 45 40 46 41 48 42 49 43 50
REMARK SMILES IDX 44 51 49 52 45 53 48 54 46 55 47 56 50 58 51 59 52 60
REMARK H PARENT 14 8 11 11 9 14 9 15 28 33 35 43 40 47 47 57 52 61
ROOT
ATOM      1  O   UNL     1      -5.656  -8.894  12.396  1.00  0.00    -0.272 OA
ATOM      2  C   UNL     1      -5.927  -7.994  11.587  1.00  0.00     0.245 C 
ENDROOT
BRANCH   2   3
ATOM      3  C   UNL     1      -6.998  -8.272  10.503  1.00  0.00     0.168 C 
ATOM      4  C   UNL     1      -8.397  -7.986  11.039  1.00  0.00     0.041 C 
BRANCH   3   5
ATOM      5  N   UNL     1      -6.762  -7.614   9.227  1.00  0.00    -0.342 N 
ATOM      6  C   UNL     1      -6.998  -8.248   8.026  1.00  0.00     0.251 C 
ATOM      7  O   UNL     1      -7.380  -9.410   7.939  1.00  0.00    -0.272 OA
ATOM      8  H   UNL     1      -6.411  -6.660   9.173  1.00  0.00     0.164 HD
BRANCH   6   9
ATOM      9  C   UNL     1      -6.816  -7.317   6.816  1.00  0.00     0.219 C 
BRANCH   9  10
ATOM     10  O   UNL     1      -6.614  -8.035   5.593  1.00  0.00    -0.382 OA
ATOM     11  H   UNL     1      -5.809  -7.619   5.212  1.00  0.00     0.211 HD
ENDBRANCH   9  10
BRANCH   9  12
ATOM     12  C   UNL     1      -7.961  -6.283   6.666  1.00  0.00     0.089 C 
BRANCH  12  13
ATOM     13  N   UNL     1      -9.083  -6.696   7.540  1.00  0.00    -0.325 NA
ATOM     14  H   UNL     1      -9.670  -7.366   7.038  1.00  0.00     0.119 HD
ATOM     15  H   UNL     1      -9.686  -5.888   7.710  1.00  0.00     0.119 HD
ENDBRANCH  12  13
BRANCH  12  16
ATOM     16  C   UNL     1      -7.585  -4.808   6.946  1.00  0.00     0.022 C 
BRANCH  16  17
ATOM     17  C   UNL     1      -7.352  -3.858   5.763  1.00  0.00     0.002 C 
BRANCH  17  18
ATOM     18  C   UNL     1      -6.670  -4.491   4.553  1.00  0.00     0.000 C 
BRANCH  18  19
ATOM     19  C   UNL     1      -5.693  -3.557   3.827  1.00  0.00    -0.000 C 
BRANCH  19  20
ATOM     20  C   UNL     1      -6.215  -2.138   3.577  1.00  0.00    -0.000 C 
BRANCH  20  21
ATOM     21  C   UNL     1      -6.030  -1.678   2.129  1.00  0.00    -0.003 C 
ATOM     22  C   UNL     1      -6.532  -0.256   1.931  1.00  0.00     0.004 C 
ENDBRANCH  20  21
ENDBRANCH  19  20
ENDBRANCH  18  19
ENDBRANCH  17  18
ENDBRANCH  16  17
ENDBRANCH  12  16
ENDBRANCH   9  12
ENDBRANCH   6   9
ENDBRANCH   3   5
ENDBRANCH   2   3
BRANCH   2  23
ATOM     23  N   UNL     1      -5.365  -6.731  11.736  1.00  0.00    -0.332 N 
ATOM     24  C   UNL     1      -6.016  -5.611  12.399  1.00  0.00     0.147 C 
BRANCH  23  25
ATOM     25  C   UNL     1      -3.957  -6.481  11.321  1.00  0.00     0.174 C 
BRANCH  25  26
ATOM     26  C   UNL     1      -3.059  -6.010  12.489  1.00  0.00     0.038 C 
BRANCH  26  27
ATOM     27  C   UNL     1      -1.826  -6.880  12.818  1.00  0.00    -0.015 C 
ATOM     28  C   UNL     1      -1.486  -7.861  11.696  1.00  0.00     0.007 C 
ATOM     29  C   UNL     1      -0.596  -6.066  13.211  1.00  0.00     0.007 C 
ENDBRANCH  26  27
ENDBRANCH  25  26
BRANCH  25  30
ATOM     30  C   UNL     1      -3.924  -5.542  10.093  1.00  0.00     0.243 C 
ATOM     31  O   UNL     1      -4.410  -5.869   9.011  1.00  0.00    -0.273 OA
ATOM     32  N   UNL     1      -3.314  -4.330  10.290  1.00  0.00    -0.342 N 
ATOM     33  H   UNL     1      -3.062  -4.076  11.249  1.00  0.00     0.164 HD
BRANCH  32  34
ATOM     34  C   UNL     1      -3.166  -3.326   9.233  1.00  0.00     0.175 C 
BRANCH  34  35
ATOM     35  C   UNL     1      -3.763  -1.975   9.657  1.00  0.00     0.070 C 
BRANCH  35  36
ATOM     36  C   UNL     1      -4.752  -1.431   8.650  1.00  0.00    -0.045 A 
ATOM     37  C   UNL     1      -4.298  -0.937   7.418  1.00  0.00     0.007 A 
ATOM     38  C   UNL     1      -6.122  -1.390   8.938  1.00  0.00     0.007 A 
ATOM     39  C   UNL     1      -5.201  -0.421   6.488  1.00  0.00     0.046 A 
ATOM     40  C   UNL     1      -7.027  -0.872   8.009  1.00  0.00     0.046 A 
ATOM     41  C   UNL     1      -6.557  -0.392   6.790  1.00  0.00     0.115 A 
BRANCH  41  42
ATOM     42  O   UNL     1      -7.406   0.124   5.856  1.00  0.00    -0.508 OA
ATOM     43  H   UNL     1      -7.324  -0.405   5.045  1.00  0.00     0.293 HD
ENDBRANCH  41  42
ENDBRANCH  35  36
ENDBRANCH  34  35
BRANCH  34  44
ATOM     44  C   UNL     1      -1.664  -3.210   8.889  1.00  0.00     0.243 C 
ATOM     45  O   UNL     1      -1.226  -2.927   7.778  1.00  0.00    -0.273 OA
ATOM     46  N   UNL     1      -0.834  -3.586   9.924  1.00  0.00    -0.341 N 
ATOM     47  H   UNL     1      -1.246  -3.926  10.790  1.00  0.00     0.164 HD
BRANCH  46  48
ATOM     48  C   UNL     1       0.626  -3.624   9.813  1.00  0.00     0.196 C 
BRANCH  48  49
ATOM     49  C   UNL     1       1.295  -3.568  11.197  1.00  0.00     0.072 C 
BRANCH  49  50
ATOM     50  C   UNL     1       2.501  -2.656  11.224  1.00  0.00    -0.045 A 
ATOM     51  C   UNL     1       2.385  -1.360  11.747  1.00  0.00     0.007 A 
ATOM     52  C   UNL     1       3.735  -3.077  10.714  1.00  0.00     0.007 A 
ATOM     53  C   UNL     1       3.487  -0.505  11.765  1.00  0.00     0.046 A 
ATOM     54  C   UNL     1       4.838  -2.221  10.731  1.00  0.00     0.046 A 
ATOM     55  C   UNL     1       4.704  -0.941  11.258  1.00  0.00     0.115 A 
BRANCH  55  56
ATOM     56  O   UNL     1       5.756  -0.074  11.292  1.00  0.00    -0.508 OA
ATOM     57  H   UNL     1       6.328  -0.256  10.529  1.00  0.00     0.293 HD
ENDBRANCH  55  56
ENDBRANCH  49  50
ENDBRANCH  48  49
BRANCH  48  58
ATOM     58  C   UNL     1       1.039  -4.916   9.094  1.00  0.00     0.326 C 
ATOM     59  O   UNL     1       1.426  -5.030   7.942  1.00  0.00    -0.250 OA
BRANCH  58  60
ATOM     60  O   UNL     1       0.956  -6.021   9.877  1.00  0.00    -0.480 OA
ATOM     61  H   UNL     1       1.639  -5.862  10.565  1.00  0.00     0.296 HD
ENDBRANCH  58  60
ENDBRANCH  48  58
ENDBRANCH  46  48
ENDBRANCH  34  44
ENDBRANCH  32  34
ENDBRANCH  25  30
ENDBRANCH  23  25
ENDBRANCH   2  23
TORSDOF 28
ENDMDL
MODEL 7
REMARK VINA RESULT:    -7.329      3.383      7.206
REMARK INTER + INTRA:         -22.953
REMARK INTER:                 -18.019
REMARK INTRA:                  -4.934
REMARK UNBOUND:                -4.700
REMARK SMILES CCCCCCC[C@H](N)[C@H](O)C(=O)N[C@H](C)C(=O)N(C)[C@H](CC(C)C)C(=O)N[C@@H](Cc1ccc(O)cc1)C(=O)N[C@@H](Cc1ccc(O)cc1)C(=O)O
REMARK SMILES IDX 18 1 17 2 15 3 16 4 14 5 12 6 13 7 10 9 11 10 8 12 9 13 7 16
REMARK SMILES IDX 6 17 5 18 4 19 3 20 2 21 1 22 19 23 20 24 21 25 22 26 23 27
REMARK SMILES IDX 24 28 25 29 26 30 27 31 28 32 29 34 30 35 31 36 32 37 37 38
REMARK SMILES IDX 33 39 36 40 34 41 35 42 38 44 39 45 40 46 41 48 42 49 43 50
REMARK SMILES IDX 44 51 49 52 45 53 48 54 46 55 47 56 50 58 51 59 52 60
REMARK H PARENT 14 8 11 11 9 14 9 15 28 33 35 43 40 47 47 57 52 61
ROOT
ATOM      1  O   UNL     1      -5.110  -8.968  10.699  1.00  0.00    -0.272 OA
ATOM      2  C   UNL     1      -5.564  -7.895  10.275  1.00  0.00     0.245 C 
ENDROOT
BRANCH   2   3
ATOM      3  C   UNL     1      -6.674  -7.935   9.196  1.00  0.00     0.168 C 
ATOM      4  C   UNL     1      -7.974  -7.347   9.735  1.00  0.00     0.041 C 
BRANCH   3   5
ATOM      5  N   UNL     1      -6.304  -7.350   7.917  1.00  0.00    -0.342 N 
ATOM      6  C   UNL     1      -6.708  -7.902   6.720  1.00  0.00     0.251 C 
ATOM      7  O   UNL     1      -7.365  -8.935   6.639  1.00  0.00    -0.272 OA
ATOM      8  H   UNL     1      -5.731  -6.511   7.856  1.00  0.00     0.164 HD
BRANCH   6   9
ATOM      9  C   UNL     1      -6.322  -7.040   5.507  1.00  0.00     0.219 C 
BRANCH   9  10
ATOM     10  O   UNL     1      -6.295  -7.786   4.284  1.00  0.00    -0.382 OA
ATOM     11  H   UNL     1      -5.664  -7.286   3.722  1.00  0.00     0.211 HD
ENDBRANCH   9  10
BRANCH   9  12
ATOM     12  C   UNL     1      -7.201  -5.770   5.358  1.00  0.00     0.089 C 
BRANCH  12  13
ATOM     13  N   UNL     1      -8.542  -6.062   5.913  1.00  0.00    -0.325 NA
ATOM     14  H   UNL     1      -8.971  -5.191   6.231  1.00  0.00     0.119 HD
ATOM     15  H   UNL     1      -8.434  -6.630   6.757  1.00  0.00     0.119 HD
ENDBRANCH  12  13
BRANCH  12  16
ATOM     16  C   UNL     1      -6.634  -4.476   5.989  1.00  0.00     0.022 C 
BRANCH  16  17
ATOM     17  C   UNL     1      -6.574  -3.197   5.143  1.00  0.00     0.002 C 
BRANCH  17  18
ATOM     18  C   UNL     1      -6.244  -3.414   3.669  1.00  0.00     0.000 C 
BRANCH  18  19
ATOM     19  C   UNL     1      -5.489  -2.247   3.019  1.00  0.00    -0.000 C 
BRANCH  19  20
ATOM     20  C   UNL     1      -6.243  -1.531   1.894  1.00  0.00    -0.000 C 
BRANCH  20  21
ATOM     21  C   UNL     1      -6.354  -0.020   2.113  1.00  0.00    -0.003 C 
ATOM     22  C   UNL     1      -6.393   0.324   3.594  1.00  0.00     0.004 C 
ENDBRANCH  20  21
ENDBRANCH  19  20
ENDBRANCH  18  19
ENDBRANCH  17  18
ENDBRANCH  16  17
ENDBRANCH  12  16
ENDBRANCH   9  12
ENDBRANCH   6   9
ENDBRANCH   3   5
ENDBRANCH   2   3
BRANCH   2  23
ATOM     23  N   UNL     1      -5.164  -6.695  10.853  1.00  0.00    -0.332 N 
ATOM     24  C   UNL     1      -5.946  -5.945  11.825  1.00  0.00     0.147 C 
BRANCH  23  25
ATOM     25  C   UNL     1      -3.802  -6.152  10.592  1.00  0.00     0.174 C 
BRANCH  25  26
ATOM     26  C   UNL     1      -3.076  -5.701  11.881  1.00  0.00     0.038 C 
BRANCH  26  27
ATOM     27  C   UNL     1      -1.560  -5.987  11.967  1.00  0.00    -0.015 C 
ATOM     28  C   UNL     1      -0.925  -5.397  13.226  1.00  0.00     0.007 C 
ATOM     29  C   UNL     1      -1.213  -7.467  11.834  1.00  0.00     0.007 C 
ENDBRANCH  26  27
ENDBRANCH  25  26
BRANCH  25  30
ATOM     30  C   UNL     1      -3.865  -5.061   9.499  1.00  0.00     0.243 C 
ATOM     31  O   UNL     1      -4.215  -5.313   8.347  1.00  0.00    -0.273 OA
ATOM     32  N   UNL     1      -3.499  -3.800   9.897  1.00  0.00    -0.342 N 
ATOM     33  H   UNL     1      -3.358  -3.643  10.898  1.00  0.00     0.164 HD
BRANCH  32  34
ATOM     34  C   UNL     1      -3.472  -2.649   8.991  1.00  0.00     0.175 C 
BRANCH  34  35
ATOM     35  C   UNL     1      -3.382  -1.328   9.769  1.00  0.00     0.070 C 
BRANCH  35  36
ATOM     36  C   UNL     1      -2.748  -1.493  11.132  1.00  0.00    -0.045 A 
ATOM     37  C   UNL     1      -3.556  -1.562  12.278  1.00  0.00     0.007 A 
ATOM     38  C   UNL     1      -1.356  -1.557  11.275  1.00  0.00     0.007 A 
ATOM     39  C   UNL     1      -2.980  -1.701  13.541  1.00  0.00     0.046 A 
ATOM     40  C   UNL     1      -0.778  -1.695  12.539  1.00  0.00     0.046 A 
ATOM     41  C   UNL     1      -1.597  -1.767  13.662  1.00  0.00     0.115 A 
BRANCH  41  42
ATOM     42  O   UNL     1      -1.074  -1.900  14.914  1.00  0.00    -0.508 OA
ATOM     43  H   UNL     1      -0.635  -1.066  15.150  1.00  0.00     0.293 HD
ENDBRANCH  41  42
ENDBRANCH  35  36
ENDBRANCH  34  35
BRANCH  34  44
ATOM     44  C   UNL     1      -2.282  -2.831   8.022  1.00  0.00     0.243 C 
ATOM     45  O   UNL     1      -2.030  -2.080   7.084  1.00  0.00    -0.273 OA
ATOM     46  N   UNL     1      -1.585  -4.004   8.223  1.00  0.00    -0.341 N 
ATOM     47  H   UNL     1      -1.904  -4.652   8.939  1.00  0.00     0.164 HD
BRANCH  46  48
ATOM     48  C   UNL     1      -0.461  -4.426   7.385  1.00  0.00     0.196 C 
BRANCH  48  49
ATOM     49  C   UNL     1       0.533  -5.293   8.177  1.00  0.00     0.072 C 
BRANCH  49  50
ATOM     50  C   UNL     1       1.526  -4.467   8.963  1.00  0.00    -0.045 A 
ATOM     51  C   UNL     1       1.374  -4.325  10.350  1.00  0.00     0.007 A 
ATOM     52  C   UNL     1       2.592  -3.821   8.324  1.00  0.00     0.007 A 
ATOM     53  C   UNL     1       2.277  -3.555  11.084  1.00  0.00     0.046 A 
ATOM     54  C   UNL     1       3.495  -3.049   9.058  1.00  0.00     0.046 A 
ATOM     55  C   UNL     1       3.330  -2.923  10.433  1.00  0.00     0.115 A 
BRANCH  55  56
ATOM     56  O   UNL     1       4.189  -2.179  11.187  1.00  0.00    -0.508 OA
ATOM     57  H   UNL     1       3.830  -2.115  12.086  1.00  0.00     0.293 HD
ENDBRANCH  55  56
ENDBRANCH  49  50
ENDBRANCH  48  49
BRANCH  48  58
ATOM     58  C   UNL     1      -1.001  -5.224   6.190  1.00  0.00     0.326 C 
ATOM     59  O   UNL     1      -0.827  -4.989   5.005  1.00  0.00    -0.250 OA
BRANCH  58  60
ATOM     60  O   UNL     1      -1.734  -6.308   6.549  1.00  0.00    -0.480 OA
ATOM     61  H   UNL     1      -2.174  -6.018   7.378  1.00  0.00     0.296 HD
ENDBRANCH  58  60
ENDBRANCH  48  58
ENDBRANCH  46  48
ENDBRANCH  34  44
ENDBRANCH  32  34
ENDBRANCH  25  30
ENDBRANCH  23  25
ENDBRANCH   2  23
TORSDOF 28
ENDMDL
MODEL 8
REMARK VINA RESULT:    -7.294      2.334      5.992
REMARK INTER + INTRA:         -22.867
REMARK INTER:                 -15.619
REMARK INTRA:                  -7.248
REMARK UNBOUND:                -4.700
REMARK SMILES CCCCCCC[C@H](N)[C@H](O)C(=O)N[C@H](C)C(=O)N(C)[C@H](CC(C)C)C(=O)N[C@@H](Cc1ccc(O)cc1)C(=O)N[C@@H](Cc1ccc(O)cc1)C(=O)O
REMARK SMILES IDX 18 1 17 2 15 3 16 4 14 5 12 6 13 7 10 9 11 10 8 12 9 13 7 16
REMARK SMILES IDX 6 17 5 18 4 19 3 20 2 21 1 22 19 23 20 24 21 25 22 26 23 27
REMARK SMILES IDX 24 28 25 29 26 30 27 31 28 32 29 34 30 35 31 36 32 37 37 38
REMARK SMILES IDX 33 39 36 40 34 41 35 42 38 44 39 45 40 46 41 48 42 49 43 50
REMARK SMILES IDX 44 51 49 52 45 53 48 54 46 55 47 56 50 58 51 59 52 60
REMARK H PARENT 14 8 11 11 9 14 9 15 28 33 35 43 40 47 47 57 52 61
ROOT
ATOM      1  O   UNL     1      -6.230  -2.520  11.129  1.00  0.00    -0.272 OA
ATOM      2  C   UNL     1      -6.388  -3.740  11.284  1.00  0.00     0.245 C 
ENDROOT
BRANCH   2   3
ATOM      3  C   UNL     1      -7.552  -4.438  10.537  1.00  0.00     0.168 C 
ATOM      4  C   UNL     1      -8.470  -3.410   9.885  1.00  0.00     0.041 C 
BRANCH   3   5
ATOM      5  N   UNL     1      -7.143  -5.472   9.599  1.00  0.00    -0.342 N 
ATOM      6  C   UNL     1      -7.434  -6.803   9.810  1.00  0.00     0.251 C 
ATOM      7  O   UNL     1      -8.013  -7.219  10.808  1.00  0.00    -0.272 OA
ATOM      8  H   UNL     1      -6.626  -5.252   8.751  1.00  0.00     0.164 HD
BRANCH   6   9
ATOM      9  C   UNL     1      -7.032  -7.695   8.624  1.00  0.00     0.219 C 
BRANCH   9  10
ATOM     10  O   UNL     1      -6.933  -9.078   8.982  1.00  0.00    -0.382 OA
ATOM     11  H   UNL     1      -7.822  -9.437   8.765  1.00  0.00     0.211 HD
ENDBRANCH   9  10
BRANCH   9  12
ATOM     12  C   UNL     1      -7.948  -7.510   7.386  1.00  0.00     0.089 C 
BRANCH  12  13
ATOM     13  N   UNL     1      -9.187  -6.823   7.819  1.00  0.00    -0.325 NA
ATOM     14  H   UNL     1      -9.325  -5.988   7.247  1.00  0.00     0.119 HD
ATOM     15  H   UNL     1      -9.056  -6.475   8.772  1.00  0.00     0.119 HD
ENDBRANCH  12  13
BRANCH  12  16
ATOM     16  C   UNL     1      -7.320  -6.766   6.183  1.00  0.00     0.022 C 
BRANCH  16  17
ATOM     17  C   UNL     1      -6.393  -7.534   5.231  1.00  0.00     0.002 C 
BRANCH  17  18
ATOM     18  C   UNL     1      -4.973  -6.981   5.130  1.00  0.00     0.000 C 
BRANCH  18  19
ATOM     19  C   UNL     1      -4.353  -6.600   6.482  1.00  0.00    -0.000 C 
BRANCH  19  20
ATOM     20  C   UNL     1      -3.823  -5.166   6.572  1.00  0.00    -0.000 C 
BRANCH  20  21
ATOM     21  C   UNL     1      -2.999  -4.753   5.350  1.00  0.00    -0.003 C 
ATOM     22  C   UNL     1      -1.546  -5.178   5.492  1.00  0.00     0.004 C 
ENDBRANCH  20  21
ENDBRANCH  19  20
ENDBRANCH  18  19
ENDBRANCH  17  18
ENDBRANCH  16  17
ENDBRANCH  12  16
ENDBRANCH   9  12
ENDBRANCH   6   9
ENDBRANCH   3   5
ENDBRANCH   2   3
BRANCH   2  23
ATOM     23  N   UNL     1      -5.461  -4.474  12.016  1.00  0.00    -0.332 N 
ATOM     24  C   UNL     1      -5.655  -4.916  13.389  1.00  0.00     0.147 C 
BRANCH  23  25
ATOM     25  C   UNL     1      -4.219  -4.976  11.367  1.00  0.00     0.174 C 
BRANCH  25  26
ATOM     26  C   UNL     1      -3.471  -6.023  12.225  1.00  0.00     0.038 C 
BRANCH  26  27
ATOM     27  C   UNL     1      -3.484  -7.482  11.718  1.00  0.00    -0.015 C 
ATOM     28  C   UNL     1      -4.635  -8.296  12.309  1.00  0.00     0.007 C 
ATOM     29  C   UNL     1      -3.472  -7.597  10.196  1.00  0.00     0.007 C 
ENDBRANCH  26  27
ENDBRANCH  25  26
BRANCH  25  30
ATOM     30  C   UNL     1      -3.333  -3.789  10.924  1.00  0.00     0.243 C 
ATOM     31  O   UNL     1      -2.675  -3.133  11.730  1.00  0.00    -0.273 OA
ATOM     32  N   UNL     1      -3.336  -3.515   9.580  1.00  0.00    -0.342 N 
ATOM     33  H   UNL     1      -3.794  -4.189   8.961  1.00  0.00     0.164 HD
BRANCH  32  34
ATOM     34  C   UNL     1      -2.579  -2.411   8.985  1.00  0.00     0.175 C 
BRANCH  34  35
ATOM     35  C   UNL     1      -1.297  -2.916   8.304  1.00  0.00     0.070 C 
BRANCH  35  36
ATOM     36  C   UNL     1      -0.321  -3.534   9.279  1.00  0.00    -0.045 A 
ATOM     37  C   UNL     1      -0.137  -4.925   9.302  1.00  0.00     0.007 A 
ATOM     38  C   UNL     1       0.392  -2.738  10.185  1.00  0.00     0.007 A 
ATOM     39  C   UNL     1       0.751  -5.506  10.207  1.00  0.00     0.046 A 
ATOM     40  C   UNL     1       1.280  -3.319  11.093  1.00  0.00     0.046 A 
ATOM     41  C   UNL     1       1.452  -4.699  11.095  1.00  0.00     0.115 A 
BRANCH  41  42
ATOM     42  O   UNL     1       2.308  -5.307  11.966  1.00  0.00    -0.508 OA
ATOM     43  H   UNL     1       3.084  -4.733  12.081  1.00  0.00     0.293 HD
ENDBRANCH  41  42
ENDBRANCH  35  36
ENDBRANCH  34  35
BRANCH  34  44
ATOM     44  C   UNL     1      -3.507  -1.673   7.994  1.00  0.00     0.243 C 
ATOM     45  O   UNL     1      -3.114  -0.960   7.075  1.00  0.00    -0.273 OA
ATOM     46  N   UNL     1      -4.844  -1.780   8.311  1.00  0.00    -0.341 N 
ATOM     47  H   UNL     1      -5.114  -2.286   9.151  1.00  0.00     0.164 HD
BRANCH  46  48
ATOM     48  C   UNL     1      -5.907  -1.110   7.558  1.00  0.00     0.196 C 
BRANCH  48  49
ATOM     49  C   UNL     1      -6.752  -2.120   6.764  1.00  0.00     0.072 C 
BRANCH  49  50
ATOM     50  C   UNL     1      -6.349  -2.198   5.308  1.00  0.00    -0.045 A 
ATOM     51  C   UNL     1      -6.367  -3.432   4.643  1.00  0.00     0.007 A 
ATOM     52  C   UNL     1      -5.936  -1.054   4.613  1.00  0.00     0.007 A 
ATOM     53  C   UNL     1      -5.985  -3.518   3.304  1.00  0.00     0.046 A 
ATOM     54  C   UNL     1      -5.553  -1.141   3.272  1.00  0.00     0.046 A 
ATOM     55  C   UNL     1      -5.582  -2.373   2.629  1.00  0.00     0.115 A 
BRANCH  55  56
ATOM     56  O   UNL     1      -5.214  -2.500   1.322  1.00  0.00    -0.508 OA
ATOM     57  H   UNL     1      -4.327  -2.891   1.290  1.00  0.00     0.293 HD
ENDBRANCH  55  56
ENDBRANCH  49  50
ENDBRANCH  48  49
BRANCH  48  58
ATOM     58  C   UNL     1      -6.807  -0.344   8.538  1.00  0.00     0.326 C 
ATOM     59  O   UNL     1      -7.996  -0.101   8.414  1.00  0.00    -0.250 OA
BRANCH  58  60
ATOM     60  O   UNL     1      -6.159   0.073   9.655  1.00  0.00    -0.480 OA
ATOM     61  H   UNL     1      -5.467   0.675   9.303  1.00  0.00     0.296 HD
ENDBRANCH  58  60
ENDBRANCH  48  58
ENDBRANCH  46  48
ENDBRANCH  34  44
ENDBRANCH  32  34
ENDBRANCH  25  30
ENDBRANCH  23  25
ENDBRANCH   2  23
TORSDOF 28
ENDMDL
MODEL 9
REMARK VINA RESULT:    -7.290      2.197      6.131
REMARK INTER + INTRA:         -22.858
REMARK INTER:                 -17.101
REMARK INTRA:                  -5.757
REMARK UNBOUND:                -4.700
REMARK SMILES CCCCCCC[C@H](N)[C@H](O)C(=O)N[C@H](C)C(=O)N(C)[C@H](CC(C)C)C(=O)N[C@@H](Cc1ccc(O)cc1)C(=O)N[C@@H](Cc1ccc(O)cc1)C(=O)O
REMARK SMILES IDX 18 1 17 2 15 3 16 4 14 5 12 6 13 7 10 9 11 10 8 12 9 13 7 16
REMARK SMILES IDX 6 17 5 18 4 19 3 20 2 21 1 22 19 23 20 24 21 25 22 26 23 27
REMARK SMILES IDX 24 28 25 29 26 30 27 31 28 32 29 34 30 35 31 36 32 37 37 38
REMARK SMILES IDX 33 39 36 40 34 41 35 42 38 44 39 45 40 46 41 48 42 49 43 50
REMARK SMILES IDX 44 51 49 52 45 53 48 54 46 55 47 56 50 58 51 59 52 60
REMARK H PARENT 14 8 11 11 9 14 9 15 28 33 35 43 40 47 47 57 52 61
ROOT
ATOM      1  O   UNL     1      -7.461  -2.572  13.134  1.00  0.00    -0.272 OA
ATOM      2  C   UNL     1      -7.560  -2.753  11.912  1.00  0.00     0.245 C 
ENDROOT
BRANCH   2   3
ATOM      3  C   UNL     1      -7.952  -4.162  11.401  1.00  0.00     0.168 C 
ATOM      4  C   UNL     1      -9.167  -4.086  10.482  1.00  0.00     0.041 C 
BRANCH   3   5
ATOM      5  N   UNL     1      -6.865  -4.919  10.801  1.00  0.00    -0.342 N 
ATOM      6  C   UNL     1      -5.839  -5.445  11.558  1.00  0.00     0.251 C 
ATOM      7  O   UNL     1      -5.742  -5.283  12.769  1.00  0.00    -0.272 OA
ATOM      8  H   UNL     1      -6.819  -5.089   9.799  1.00  0.00     0.164 HD
BRANCH   6   9
ATOM      9  C   UNL     1      -4.884  -6.324  10.735  1.00  0.00     0.219 C 
BRANCH   9  10
ATOM     10  O   UNL     1      -5.494  -7.544  10.296  1.00  0.00    -0.382 OA
ATOM     11  H   UNL     1      -5.866  -7.313   9.417  1.00  0.00     0.211 HD
ENDBRANCH   9  10
BRANCH   9  12
ATOM     12  C   UNL     1      -4.238  -5.571   9.542  1.00  0.00     0.089 C 
BRANCH  12  13
ATOM     13  N   UNL     1      -5.320  -4.976   8.725  1.00  0.00    -0.325 NA
ATOM     14  H   UNL     1      -4.914  -4.311   8.064  1.00  0.00     0.119 HD
ATOM     15  H   UNL     1      -5.923  -4.415   9.332  1.00  0.00     0.119 HD
ENDBRANCH  12  13
BRANCH  12  16
ATOM     16  C   UNL     1      -3.192  -4.491   9.908  1.00  0.00     0.022 C 
BRANCH  16  17
ATOM     17  C   UNL     1      -2.011  -4.244   8.960  1.00  0.00     0.002 C 
BRANCH  17  18
ATOM     18  C   UNL     1      -0.914  -5.305   9.007  1.00  0.00     0.000 C 
BRANCH  18  19
ATOM     19  C   UNL     1      -0.589  -5.806  10.421  1.00  0.00    -0.000 C 
BRANCH  19  20
ATOM     20  C   UNL     1       0.890  -6.101  10.682  1.00  0.00    -0.000 C 
BRANCH  20  21
ATOM     21  C   UNL     1       1.334  -5.733  12.101  1.00  0.00    -0.003 C 
ATOM     22  C   UNL     1       0.962  -6.820  13.097  1.00  0.00     0.004 C 
ENDBRANCH  20  21
ENDBRANCH  19  20
ENDBRANCH  18  19
ENDBRANCH  17  18
ENDBRANCH  16  17
ENDBRANCH  12  16
ENDBRANCH   9  12
ENDBRANCH   6   9
ENDBRANCH   3   5
ENDBRANCH   2   3
BRANCH   2  23
ATOM     23  N   UNL     1      -7.439  -1.678  11.037  1.00  0.00    -0.332 N 
ATOM     24  C   UNL     1      -8.431  -0.624  10.883  1.00  0.00     0.147 C 
BRANCH  23  25
ATOM     25  C   UNL     1      -6.180  -1.472  10.270  1.00  0.00     0.174 C 
BRANCH  25  26
ATOM     26  C   UNL     1      -5.305  -0.333  10.845  1.00  0.00     0.038 C 
BRANCH  26  27
ATOM     27  C   UNL     1      -3.913  -0.726  11.387  1.00  0.00    -0.015 C 
ATOM     28  C   UNL     1      -3.952  -1.998  12.233  1.00  0.00     0.007 C 
ATOM     29  C   UNL     1      -2.847  -0.837  10.299  1.00  0.00     0.007 C 
ENDBRANCH  26  27
ENDBRANCH  25  26
BRANCH  25  30
ATOM     30  C   UNL     1      -6.494  -1.314   8.765  1.00  0.00     0.243 C 
ATOM     31  O   UNL     1      -6.513  -0.214   8.216  1.00  0.00    -0.273 OA
ATOM     32  N   UNL     1      -6.755  -2.478   8.088  1.00  0.00    -0.342 N 
ATOM     33  H   UNL     1      -6.582  -3.360   8.578  1.00  0.00     0.164 HD
BRANCH  32  34
ATOM     34  C   UNL     1      -7.098  -2.519   6.664  1.00  0.00     0.175 C 
BRANCH  34  35
ATOM     35  C   UNL     1      -5.838  -2.525   5.786  1.00  0.00     0.070 C 
BRANCH  35  36
ATOM     36  C   UNL     1      -5.933  -1.567   4.619  1.00  0.00    -0.045 A 
ATOM     37  C   UNL     1      -6.131  -0.197   4.851  1.00  0.00     0.007 A 
ATOM     38  C   UNL     1      -5.849  -2.030   3.300  1.00  0.00     0.007 A 
ATOM     39  C   UNL     1      -6.234   0.692   3.781  1.00  0.00     0.046 A 
ATOM     40  C   UNL     1      -5.953  -1.141   2.228  1.00  0.00     0.046 A 
ATOM     41  C   UNL     1      -6.144   0.214   2.479  1.00  0.00     0.115 A 
BRANCH  41  42
ATOM     42  O   UNL     1      -6.252   1.116   1.462  1.00  0.00    -0.508 OA
ATOM     43  H   UNL     1      -6.749   1.885   1.788  1.00  0.00     0.293 HD
ENDBRANCH  41  42
ENDBRANCH  35  36
ENDBRANCH  34  35
BRANCH  34  44
ATOM     44  C   UNL     1      -7.979  -3.764   6.419  1.00  0.00     0.243 C 
ATOM     45  O   UNL     1      -9.203  -3.740   6.319  1.00  0.00    -0.273 OA
ATOM     46  N   UNL     1      -7.275  -4.949   6.450  1.00  0.00    -0.341 N 
ATOM     47  H   UNL     1      -6.278  -4.926   6.653  1.00  0.00     0.164 HD
BRANCH  46  48
ATOM     48  C   UNL     1      -7.904  -6.264   6.311  1.00  0.00     0.196 C 
BRANCH  48  49
ATOM     49  C   UNL     1      -6.942  -7.280   5.671  1.00  0.00     0.072 C 
BRANCH  49  50
ATOM     50  C   UNL     1      -5.515  -6.784   5.630  1.00  0.00    -0.045 A 
ATOM     51  C   UNL     1      -4.540  -7.390   6.436  1.00  0.00     0.007 A 
ATOM     52  C   UNL     1      -5.149  -5.708   4.812  1.00  0.00     0.007 A 
ATOM     53  C   UNL     1      -3.223  -6.932   6.417  1.00  0.00     0.046 A 
ATOM     54  C   UNL     1      -3.830  -5.248   4.793  1.00  0.00     0.046 A 
ATOM     55  C   UNL     1      -2.877  -5.866   5.596  1.00  0.00     0.115 A 
BRANCH  55  56
ATOM     56  O   UNL     1      -1.580  -5.447   5.607  1.00  0.00    -0.508 OA
ATOM     57  H   UNL     1      -1.023  -6.185   5.902  1.00  0.00     0.293 HD
ENDBRANCH  55  56
ENDBRANCH  49  50
ENDBRANCH  48  49
BRANCH  48  58
ATOM     58  C   UNL     1      -8.332  -6.763   7.698  1.00  0.00     0.326 C 
ATOM     59  O   UNL     1      -7.605  -7.093   8.621  1.00  0.00    -0.250 OA
BRANCH  58  60
ATOM     60  O   UNL     1      -9.677  -6.810   7.865  1.00  0.00    -0.480 OA
ATOM     61  H   UNL     1      -9.779  -7.091   8.800  1.00  0.00     0.296 HD
ENDBRANCH  58  60
ENDBRANCH  48  58
ENDBRANCH  46  48
ENDBRANCH  34  44
ENDBRANCH  32  34
ENDBRANCH  25  30
ENDBRANCH  23  25
ENDBRANCH   2  23
TORSDOF 28
ENDMDL
MODEL 10
REMARK VINA RESULT:    -7.209      2.569      6.970
REMARK INTER + INTRA:         -22.654
REMARK INTER:                 -17.432
REMARK INTRA:                  -5.222
REMARK UNBOUND:                -4.700
REMARK SMILES CCCCCCC[C@H](N)[C@H](O)C(=O)N[C@H](C)C(=O)N(C)[C@H](CC(C)C)C(=O)N[C@@H](Cc1ccc(O)cc1)C(=O)N[C@@H](Cc1ccc(O)cc1)C(=O)O
REMARK SMILES IDX 18 1 17 2 15 3 16 4 14 5 12 6 13 7 10 9 11 10 8 12 9 13 7 16
REMARK SMILES IDX 6 17 5 18 4 19 3 20 2 21 1 22 19 23 20 24 21 25 22 26 23 27
REMARK SMILES IDX 24 28 25 29 26 30 27 31 28 32 29 34 30 35 31 36 32 37 37 38
REMARK SMILES IDX 33 39 36 40 34 41 35 42 38 44 39 45 40 46 41 48 42 49 43 50
REMARK SMILES IDX 44 51 49 52 45 53 48 54 46 55 47 56 50 58 51 59 52 60
REMARK H PARENT 14 8 11 11 9 14 9 15 28 33 35 43 40 47 47 57 52 61
ROOT
ATOM      1  O   UNL     1      -5.613  -3.489  11.394  1.00  0.00    -0.272 OA
ATOM      2  C   UNL     1      -5.623  -4.551  12.034  1.00  0.00     0.245 C 
ENDROOT
BRANCH   2   3
ATOM      3  C   UNL     1      -6.987  -5.218  12.341  1.00  0.00     0.168 C 
ATOM      4  C   UNL     1      -8.046  -4.166  12.652  1.00  0.00     0.041 C 
BRANCH   3   5
ATOM      5  N   UNL     1      -7.443  -6.167  11.338  1.00  0.00    -0.342 N 
ATOM      6  C   UNL     1      -8.376  -7.140  11.628  1.00  0.00     0.251 C 
ATOM      7  O   UNL     1      -8.855  -7.307  12.744  1.00  0.00    -0.272 OA
ATOM      8  H   UNL     1      -7.091  -6.150  10.384  1.00  0.00     0.164 HD
BRANCH   6   9
ATOM      9  C   UNL     1      -8.812  -7.934  10.386  1.00  0.00     0.219 C 
BRANCH   9  10
ATOM     10  O   UNL     1      -9.572  -9.103  10.716  1.00  0.00    -0.382 OA
ATOM     11  H   UNL     1      -9.045  -9.527  11.428  1.00  0.00     0.211 HD
ENDBRANCH   9  10
BRANCH   9  12
ATOM     12  C   UNL     1      -9.563  -7.067   9.341  1.00  0.00     0.089 C 
BRANCH  12  13
ATOM     13  N   UNL     1     -10.110  -5.876  10.030  1.00  0.00    -0.325 NA
ATOM     14  H   UNL     1      -9.438  -5.109   9.962  1.00  0.00     0.119 HD
ATOM     15  H   UNL     1     -10.186  -6.077  11.030  1.00  0.00     0.119 HD
ENDBRANCH  12  13
BRANCH  12  16
ATOM     16  C   UNL     1      -8.741  -6.634   8.103  1.00  0.00     0.022 C 
BRANCH  16  17
ATOM     17  C   UNL     1      -7.686  -7.593   7.535  1.00  0.00     0.002 C 
BRANCH  17  18
ATOM     18  C   UNL     1      -6.358  -6.939   7.159  1.00  0.00     0.000 C 
BRANCH  18  19
ATOM     19  C   UNL     1      -6.083  -6.906   5.649  1.00  0.00    -0.000 C 
BRANCH  19  20
ATOM     20  C   UNL     1      -4.641  -7.219   5.244  1.00  0.00    -0.000 C 
BRANCH  20  21
ATOM     21  C   UNL     1      -3.639  -7.017   6.384  1.00  0.00    -0.003 C 
ATOM     22  C   UNL     1      -2.429  -6.220   5.924  1.00  0.00     0.004 C 
ENDBRANCH  20  21
ENDBRANCH  19  20
ENDBRANCH  18  19
ENDBRANCH  17  18
ENDBRANCH  16  17
ENDBRANCH  12  16
ENDBRANCH   9  12
ENDBRANCH   6   9
ENDBRANCH   3   5
ENDBRANCH   2   3
BRANCH   2  23
ATOM     23  N   UNL     1      -4.425  -5.182  12.354  1.00  0.00    -0.332 N 
ATOM     24  C   UNL     1      -3.944  -5.401  13.710  1.00  0.00     0.147 C 
BRANCH  23  25
ATOM     25  C   UNL     1      -3.596  -5.805  11.286  1.00  0.00     0.174 C 
BRANCH  25  26
ATOM     26  C   UNL     1      -3.027  -7.184  11.693  1.00  0.00     0.038 C 
BRANCH  26  27
ATOM     27  C   UNL     1      -3.848  -8.428  11.287  1.00  0.00    -0.015 C 
ATOM     28  C   UNL     1      -4.975  -8.733  12.273  1.00  0.00     0.007 C 
ATOM     29  C   UNL     1      -4.387  -8.360   9.860  1.00  0.00     0.007 C 
ENDBRANCH  26  27
ENDBRANCH  25  26
BRANCH  25  30
ATOM     30  C   UNL     1      -2.519  -4.808  10.799  1.00  0.00     0.243 C 
ATOM     31  O   UNL     1      -1.932  -4.055  11.574  1.00  0.00    -0.273 OA
ATOM     32  N   UNL     1      -2.271  -4.815   9.450  1.00  0.00    -0.342 N 
ATOM     33  H   UNL     1      -2.694  -5.563   8.895  1.00  0.00     0.164 HD
BRANCH  32  34
ATOM     34  C   UNL     1      -1.304  -3.921   8.808  1.00  0.00     0.175 C 
BRANCH  34  35
ATOM     35  C   UNL     1      -0.064  -4.690   8.328  1.00  0.00     0.070 C 
BRANCH  35  36
ATOM     36  C   UNL     1       1.209  -4.224   9.000  1.00  0.00    -0.045 A 
ATOM     37  C   UNL     1       2.297  -3.800   8.223  1.00  0.00     0.007 A 
ATOM     38  C   UNL     1       1.329  -4.231  10.396  1.00  0.00     0.007 A 
ATOM     39  C   UNL     1       3.480  -3.382   8.834  1.00  0.00     0.046 A 
ATOM     40  C   UNL     1       2.513  -3.814  11.008  1.00  0.00     0.046 A 
ATOM     41  C   UNL     1       3.579  -3.391  10.220  1.00  0.00     0.115 A 
BRANCH  41  42
ATOM     42  O   UNL     1       4.753  -2.978  10.776  1.00  0.00    -0.508 OA
ATOM     43  H   UNL     1       4.725  -3.175  11.727  1.00  0.00     0.293 HD
ENDBRANCH  41  42
ENDBRANCH  35  36
ENDBRANCH  34  35
BRANCH  34  44
ATOM     44  C   UNL     1      -2.021  -3.197   7.645  1.00  0.00     0.243 C 
ATOM     45  O   UNL     1      -1.445  -2.649   6.710  1.00  0.00    -0.273 OA
ATOM     46  N   UNL     1      -3.386  -3.104   7.815  1.00  0.00    -0.341 N 
ATOM     47  H   UNL     1      -3.804  -3.472   8.666  1.00  0.00     0.164 HD
BRANCH  46  48
ATOM     48  C   UNL     1      -4.268  -2.404   6.879  1.00  0.00     0.196 C 
BRANCH  48  49
ATOM     49  C   UNL     1      -5.197  -3.386   6.144  1.00  0.00     0.072 C 
BRANCH  49  50
ATOM     50  C   UNL     1      -5.342  -3.060   4.675  1.00  0.00    -0.045 A 
ATOM     51  C   UNL     1      -4.914  -3.982   3.709  1.00  0.00     0.007 A 
ATOM     52  C   UNL     1      -5.880  -1.836   4.257  1.00  0.00     0.007 A 
ATOM     53  C   UNL     1      -5.030  -3.688   2.350  1.00  0.00     0.046 A 
ATOM     54  C   UNL     1      -5.996  -1.540   2.897  1.00  0.00     0.046 A 
ATOM     55  C   UNL     1      -5.571  -2.470   1.955  1.00  0.00     0.115 A 
BRANCH  55  56
ATOM     56  O   UNL     1      -5.665  -2.220   0.618  1.00  0.00    -0.508 OA
ATOM     57  H   UNL     1      -4.783  -1.991   0.286  1.00  0.00     0.293 HD
ENDBRANCH  55  56
ENDBRANCH  49  50
ENDBRANCH  48  49
BRANCH  48  58
ATOM     58  C   UNL     1      -5.110  -1.383   7.655  1.00  0.00     0.326 C 
ATOM     59  O   UNL     1      -6.319  -1.223   7.595  1.00  0.00    -0.250 OA
BRANCH  58  60
ATOM     60  O   UNL     1      -4.381  -0.607   8.496  1.00  0.00    -0.480 OA
ATOM     61  H   UNL     1      -3.704  -1.227   8.845  1.00  0.00     0.296 HD
ENDBRANCH  58  60
ENDBRANCH  48  58
ENDBRANCH  46  48
ENDBRANCH  34  44
ENDBRANCH  32  34
ENDBRANCH  25  30
ENDBRANCH  23  25
ENDBRANCH   2  23
TORSDOF 28
ENDMDL
