MODEL 1
REMARK VINA RESULT:    -5.368      0.000      0.000
REMARK INTER + INTRA:         -19.507
REMARK INTER:                 -13.371
REMARK INTRA:                  -6.135
REMARK UNBOUND:                -6.135
REMARK SMILES CCCCCCC[C@H](N)[C@H](O)C(=O)N[C@H](C)C(=O)N(C)[C@H](CC(C)C)C(=O)N[C@@H](Cc1ccc(O)cc1)C(=O)N[C@@H](Cc1ccc(O)cc1)C(=O)O
REMARK SMILES IDX 18 1 17 2 15 3 16 4 14 5 12 6 13 7 10 9 11 10 8 12 9 13 7 16
REMARK SMILES IDX 6 17 5 18 4 19 3 20 2 21 1 22 19 23 20 24 21 25 22 26 23 27
REMARK SMILES IDX 24 28 25 29 26 30 27 31 28 32 29 34 30 35 31 36 32 37 37 38
REMARK SMILES IDX 33 39 36 40 34 41 35 42 38 44 39 45 40 46 41 48 42 49 43 50
REMARK SMILES IDX 44 51 49 52 45 53 48 54 46 55 47 56 50 58 51 59 52 60
REMARK H PARENT 14 8 11 11 9 14 9 15 28 33 35 43 40 47 47 57 52 61
ROOT
ATOM      1  O   UNL     1      -0.947  -1.275  -8.493  1.00  0.00    -0.272 OA
ATOM      2  C   UNL     1      -2.111  -1.477  -8.868  1.00  0.00     0.245 C 
ENDROOT
BRANCH   2   3
ATOM      3  C   UNL     1      -3.227  -1.576  -7.798  1.00  0.00     0.168 C 
ATOM      4  C   UNL     1      -3.353  -3.004  -7.277  1.00  0.00     0.041 C 
BRANCH   3   5
ATOM      5  N   UNL     1      -3.122  -0.611  -6.715  1.00  0.00    -0.342 N 
ATOM      6  C   UNL     1      -3.663   0.654  -6.811  1.00  0.00     0.251 C 
ATOM      7  O   UNL     1      -4.229   1.072  -7.816  1.00  0.00    -0.272 OA
ATOM      8  H   UNL     1      -2.645  -0.832  -5.844  1.00  0.00     0.164 HD
BRANCH   6   9
ATOM      9  C   UNL     1      -3.557   1.447  -5.499  1.00  0.00     0.219 C 
BRANCH   9  10
ATOM     10  O   UNL     1      -2.203   1.617  -5.064  1.00  0.00    -0.382 OA
ATOM     11  H   UNL     1      -1.979   0.750  -4.660  1.00  0.00     0.211 HD
ENDBRANCH   9  10
BRANCH   9  12
ATOM     12  C   UNL     1      -4.295   2.811  -5.551  1.00  0.00     0.089 C 
BRANCH  12  13
ATOM     13  N   UNL     1      -5.735   2.573  -5.302  1.00  0.00    -0.325 NA
ATOM     14  H   UNL     1      -6.013   1.697  -5.749  1.00  0.00     0.119 HD
ATOM     15  H   UNL     1      -6.277   3.299  -5.777  1.00  0.00     0.119 HD
ENDBRANCH  12  13
BRANCH  12  16
ATOM     16  C   UNL     1      -3.764   3.906  -4.595  1.00  0.00     0.022 C 
BRANCH  16  17
ATOM     17  C   UNL     1      -2.861   5.013  -5.155  1.00  0.00     0.002 C 
BRANCH  17  18
ATOM     18  C   UNL     1      -1.703   5.423  -4.247  1.00  0.00     0.000 C 
BRANCH  18  19
ATOM     19  C   UNL     1      -0.394   4.675  -4.530  1.00  0.00    -0.000 C 
BRANCH  19  20
ATOM     20  C   UNL     1       0.018   3.658  -3.462  1.00  0.00    -0.000 C 
BRANCH  20  21
ATOM     21  C   UNL     1       1.454   3.852  -2.971  1.00  0.00    -0.003 C 
ATOM     22  C   UNL     1       1.995   2.586  -2.325  1.00  0.00     0.004 C 
ENDBRANCH  20  21
ENDBRANCH  19  20
ENDBRANCH  18  19
ENDBRANCH  17  18
ENDBRANCH  16  17
ENDBRANCH  12  16
ENDBRANCH   9  12
ENDBRANCH   6   9
ENDBRANCH   3   5
ENDBRANCH   2   3
BRANCH   2  23
ATOM     23  N   UNL     1      -2.413  -1.489 -10.225  1.00  0.00    -0.332 N 
ATOM     24  C   UNL     1      -1.972  -2.513 -11.161  1.00  0.00     0.147 C 
BRANCH  23  25
ATOM     25  C   UNL     1      -3.347  -0.479 -10.796  1.00  0.00     0.174 C 
BRANCH  25  26
ATOM     26  C   UNL     1      -4.131  -1.008 -12.020  1.00  0.00     0.038 C 
BRANCH  26  27
ATOM     27  C   UNL     1      -5.631  -1.314 -11.812  1.00  0.00    -0.015 C 
ATOM     28  C   UNL     1      -6.096  -2.528 -12.616  1.00  0.00     0.007 C 
ATOM     29  C   UNL     1      -6.023  -1.460 -10.344  1.00  0.00     0.007 C 
ENDBRANCH  26  27
ENDBRANCH  25  26
BRANCH  25  30
ATOM     30  C   UNL     1      -2.599   0.847 -11.062  1.00  0.00     0.243 C 
ATOM     31  O   UNL     1      -2.617   1.393 -12.164  1.00  0.00    -0.273 OA
ATOM     32  N   UNL     1      -1.914   1.367  -9.994  1.00  0.00    -0.342 N 
ATOM     33  H   UNL     1      -2.063   0.933  -9.079  1.00  0.00     0.164 HD
BRANCH  32  34
ATOM     34  C   UNL     1      -1.128   2.601 -10.070  1.00  0.00     0.175 C 
BRANCH  34  35
ATOM     35  C   UNL     1      -1.184   3.381  -8.748  1.00  0.00     0.070 C 
BRANCH  35  36
ATOM     36  C   UNL     1       0.102   3.288  -7.958  1.00  0.00    -0.045 A 
ATOM     37  C   UNL     1       0.361   2.157  -7.169  1.00  0.00     0.007 A 
ATOM     38  C   UNL     1       1.038   4.331  -7.983  1.00  0.00     0.007 A 
ATOM     39  C   UNL     1       1.538   2.068  -6.426  1.00  0.00     0.046 A 
ATOM     40  C   UNL     1       2.217   4.243  -7.238  1.00  0.00     0.046 A 
ATOM     41  C   UNL     1       2.457   3.110  -6.467  1.00  0.00     0.115 A 
BRANCH  41  42
ATOM     42  O   UNL     1       3.593   2.985  -5.724  1.00  0.00    -0.508 OA
ATOM     43  H   UNL     1       3.723   2.044  -5.521  1.00  0.00     0.293 HD
ENDBRANCH  41  42
ENDBRANCH  35  36
ENDBRANCH  34  35
BRANCH  34  44
ATOM     44  C   UNL     1       0.320   2.223 -10.456  1.00  0.00     0.243 C 
ATOM     45  O   UNL     1       1.106   2.976 -11.024  1.00  0.00    -0.273 OA
ATOM     46  N   UNL     1       0.623   0.899 -10.220  1.00  0.00    -0.341 N 
ATOM     47  H   UNL     1      -0.100   0.284  -9.854  1.00  0.00     0.164 HD
BRANCH  46  48
ATOM     48  C   UNL     1       1.910   0.292 -10.566  1.00  0.00     0.196 C 
BRANCH  48  49
ATOM     49  C   UNL     1       2.957   0.532  -9.465  1.00  0.00     0.072 C 
BRANCH  49  50
ATOM     50  C   UNL     1       4.161   1.298  -9.964  1.00  0.00    -0.045 A 
ATOM     51  C   UNL     1       4.899   2.096  -9.077  1.00  0.00     0.007 A 
ATOM     52  C   UNL     1       4.544   1.242 -11.310  1.00  0.00     0.007 A 
ATOM     53  C   UNL     1       6.004   2.818  -9.529  1.00  0.00     0.046 A 
ATOM     54  C   UNL     1       5.650   1.966 -11.763  1.00  0.00     0.046 A 
ATOM     55  C   UNL     1       6.371   2.747 -10.867  1.00  0.00     0.115 A 
BRANCH  55  56
ATOM     56  O   UNL     1       7.456   3.469 -11.269  1.00  0.00    -0.508 OA
ATOM     57  H   UNL     1       7.555   4.229 -10.673  1.00  0.00     0.293 HD
ENDBRANCH  55  56
ENDBRANCH  49  50
ENDBRANCH  48  49
BRANCH  48  58
ATOM     58  C   UNL     1       1.713  -1.216 -10.769  1.00  0.00     0.326 C 
ATOM     59  O   UNL     1       1.477  -1.797 -11.817  1.00  0.00    -0.250 OA
BRANCH  58  60
ATOM     60  O   UNL     1       1.839  -1.937  -9.627  1.00  0.00    -0.480 OA
ATOM     61  H   UNL     1       1.628  -1.285  -8.924  1.00  0.00     0.296 HD
ENDBRANCH  58  60
ENDBRANCH  48  58
ENDBRANCH  46  48
ENDBRANCH  34  44
ENDBRANCH  32  34
ENDBRANCH  25  30
ENDBRANCH  23  25
ENDBRANCH   2  23
TORSDOF 28
ENDMDL
MODEL 2
REMARK VINA RESULT:    -5.309      2.161      3.563
REMARK INTER + INTRA:         -19.358
REMARK INTER:                 -13.268
REMARK INTRA:                  -6.090
REMARK UNBOUND:                -6.135
REMARK SMILES CCCCCCC[C@H](N)[C@H](O)C(=O)N[C@H](C)C(=O)N(C)[C@H](CC(C)C)C(=O)N[C@@H](Cc1ccc(O)cc1)C(=O)N[C@@H](Cc1ccc(O)cc1)C(=O)O
REMARK SMILES IDX 18 1 17 2 15 3 16 4 14 5 12 6 13 7 10 9 11 10 8 12 9 13 7 16
REMARK SMILES IDX 6 17 5 18 4 19 3 20 2 21 1 22 19 23 20 24 21 25 22 26 23 27
REMARK SMILES IDX 24 28 25 29 26 30 27 31 28 32 29 34 30 35 31 36 32 37 37 38
REMARK SMILES IDX 33 39 36 40 34 41 35 42 38 44 39 45 40 46 41 48 42 49 43 50
REMARK SMILES IDX 44 51 49 52 45 53 48 54 46 55 47 56 50 58 51 59 52 60
REMARK H PARENT 14 8 11 11 9 14 9 15 28 33 35 43 40 47 47 57 52 61
ROOT
ATOM      1  O   UNL     1      -1.003  -1.116  -8.499  1.00  0.00    -0.272 OA
ATOM      2  C   UNL     1      -2.129  -1.524  -8.817  1.00  0.00     0.245 C 
ENDROOT
BRANCH   2   3
ATOM      3  C   UNL     1      -3.167  -1.782  -7.697  1.00  0.00     0.168 C 
ATOM      4  C   UNL     1      -3.092  -3.226  -7.211  1.00  0.00     0.041 C 
BRANCH   3   5
ATOM      5  N   UNL     1      -3.124  -0.836  -6.593  1.00  0.00    -0.342 N 
ATOM      6  C   UNL     1      -3.732   0.399  -6.668  1.00  0.00     0.251 C 
ATOM      7  O   UNL     1      -4.311   0.808  -7.669  1.00  0.00    -0.272 OA
ATOM      8  H   UNL     1      -2.642  -1.049  -5.723  1.00  0.00     0.164 HD
BRANCH   6   9
ATOM      9  C   UNL     1      -3.679   1.170  -5.339  1.00  0.00     0.219 C 
BRANCH   9  10
ATOM     10  O   UNL     1      -3.959   0.338  -4.207  1.00  0.00    -0.382 OA
ATOM     11  H   UNL     1      -3.211   0.519  -3.597  1.00  0.00     0.211 HD
ENDBRANCH   9  10
BRANCH   9  12
ATOM     12  C   UNL     1      -2.352   1.946  -5.138  1.00  0.00     0.089 C 
BRANCH  12  13
ATOM     13  N   UNL     1      -1.527   1.786  -6.357  1.00  0.00    -0.325 NA
ATOM     14  H   UNL     1      -1.947   2.321  -7.120  1.00  0.00     0.119 HD
ATOM     15  H   UNL     1      -1.570   0.810  -6.660  1.00  0.00     0.119 HD
ENDBRANCH  12  13
BRANCH  12  16
ATOM     16  C   UNL     1      -2.491   3.446  -4.783  1.00  0.00     0.022 C 
BRANCH  16  17
ATOM     17  C   UNL     1      -3.891   4.071  -4.715  1.00  0.00     0.002 C 
BRANCH  17  18
ATOM     18  C   UNL     1      -3.923   5.594  -4.820  1.00  0.00     0.000 C 
BRANCH  18  19
ATOM     19  C   UNL     1      -2.561   6.228  -5.133  1.00  0.00    -0.000 C 
BRANCH  19  20
ATOM     20  C   UNL     1      -2.597   7.386  -6.134  1.00  0.00    -0.000 C 
BRANCH  20  21
ATOM     21  C   UNL     1      -3.934   7.500  -6.871  1.00  0.00    -0.003 C 
ATOM     22  C   UNL     1      -3.728   7.665  -8.369  1.00  0.00     0.004 C 
ENDBRANCH  20  21
ENDBRANCH  19  20
ENDBRANCH  18  19
ENDBRANCH  17  18
ENDBRANCH  16  17
ENDBRANCH  12  16
ENDBRANCH   9  12
ENDBRANCH   6   9
ENDBRANCH   3   5
ENDBRANCH   2   3
BRANCH   2  23
ATOM     23  N   UNL     1      -2.480  -1.624 -10.159  1.00  0.00    -0.332 N 
ATOM     24  C   UNL     1      -1.902  -2.579 -11.094  1.00  0.00     0.147 C 
BRANCH  23  25
ATOM     25  C   UNL     1      -3.601  -0.812 -10.706  1.00  0.00     0.174 C 
BRANCH  25  26
ATOM     26  C   UNL     1      -4.514  -1.613 -11.663  1.00  0.00     0.038 C 
BRANCH  26  27
ATOM     27  C   UNL     1      -5.956  -1.895 -11.184  1.00  0.00    -0.015 C 
ATOM     28  C   UNL     1      -6.728  -0.614 -10.870  1.00  0.00     0.007 C 
ATOM     29  C   UNL     1      -6.751  -2.782 -12.139  1.00  0.00     0.007 C 
ENDBRANCH  26  27
ENDBRANCH  25  26
BRANCH  25  30
ATOM     30  C   UNL     1      -3.058   0.501 -11.317  1.00  0.00     0.243 C 
ATOM     31  O   UNL     1      -3.449   0.921 -12.405  1.00  0.00    -0.273 OA
ATOM     32  N   UNL     1      -2.114   1.157 -10.570  1.00  0.00    -0.342 N 
ATOM     33  H   UNL     1      -1.946   0.822  -9.618  1.00  0.00     0.164 HD
BRANCH  32  34
ATOM     34  C   UNL     1      -1.470   2.399 -11.004  1.00  0.00     0.175 C 
BRANCH  34  35
ATOM     35  C   UNL     1      -1.630   3.508  -9.953  1.00  0.00     0.070 C 
BRANCH  35  36
ATOM     36  C   UNL     1      -3.074   3.896  -9.727  1.00  0.00    -0.045 A 
ATOM     37  C   UNL     1      -3.868   4.309 -10.808  1.00  0.00     0.007 A 
ATOM     38  C   UNL     1      -3.633   3.871  -8.442  1.00  0.00     0.007 A 
ATOM     39  C   UNL     1      -5.197   4.681 -10.607  1.00  0.00     0.046 A 
ATOM     40  C   UNL     1      -4.964   4.245  -8.240  1.00  0.00     0.046 A 
ATOM     41  C   UNL     1      -5.734   4.646  -9.326  1.00  0.00     0.115 A 
BRANCH  41  42
ATOM     42  O   UNL     1      -7.036   5.020  -9.173  1.00  0.00    -0.508 OA
ATOM     43  H   UNL     1      -7.197   5.799  -9.731  1.00  0.00     0.293 HD
ENDBRANCH  41  42
ENDBRANCH  35  36
ENDBRANCH  34  35
BRANCH  34  44
ATOM     44  C   UNL     1       0.016   2.092 -11.297  1.00  0.00     0.243 C 
ATOM     45  O   UNL     1       0.759   2.819 -11.949  1.00  0.00    -0.273 OA
ATOM     46  N   UNL     1       0.413   0.844 -10.865  1.00  0.00    -0.341 N 
ATOM     47  H   UNL     1      -0.272   0.229 -10.433  1.00  0.00     0.164 HD
BRANCH  46  48
ATOM     48  C   UNL     1       1.756   0.304 -11.090  1.00  0.00     0.196 C 
BRANCH  48  49
ATOM     49  C   UNL     1       2.712   0.684  -9.947  1.00  0.00     0.072 C 
BRANCH  49  50
ATOM     50  C   UNL     1       4.087   1.070 -10.442  1.00  0.00    -0.045 A 
ATOM     51  C   UNL     1       5.220   0.751  -9.679  1.00  0.00     0.007 A 
ATOM     52  C   UNL     1       4.250   1.763 -11.648  1.00  0.00     0.007 A 
ATOM     53  C   UNL     1       6.493   1.114 -10.119  1.00  0.00     0.046 A 
ATOM     54  C   UNL     1       5.525   2.127 -12.089  1.00  0.00     0.046 A 
ATOM     55  C   UNL     1       6.636   1.798 -11.320  1.00  0.00     0.115 A 
BRANCH  55  56
ATOM     56  O   UNL     1       7.897   2.136 -11.714  1.00  0.00    -0.508 OA
ATOM     57  H   UNL     1       8.502   1.427 -11.443  1.00  0.00     0.293 HD
ENDBRANCH  55  56
ENDBRANCH  49  50
ENDBRANCH  48  49
BRANCH  48  58
ATOM     58  C   UNL     1       1.667  -1.225 -11.200  1.00  0.00     0.326 C 
ATOM     59  O   UNL     1       1.668  -1.894 -12.220  1.00  0.00    -0.250 OA
BRANCH  58  60
ATOM     60  O   UNL     1       1.594  -1.850  -9.998  1.00  0.00    -0.480 OA
ATOM     61  H   UNL     1       2.525  -2.108  -9.821  1.00  0.00     0.296 HD
ENDBRANCH  58  60
ENDBRANCH  48  58
ENDBRANCH  46  48
ENDBRANCH  34  44
ENDBRANCH  32  34
ENDBRANCH  25  30
ENDBRANCH  23  25
ENDBRANCH   2  23
TORSDOF 28
ENDMDL
MODEL 3
REMARK VINA RESULT:    -5.200      2.713      7.358
REMARK INTER + INTRA:         -19.088
REMARK INTER:                 -15.267
REMARK INTRA:                  -3.820
REMARK UNBOUND:                -6.135
REMARK SMILES CCCCCCC[C@H](N)[C@H](O)C(=O)N[C@H](C)C(=O)N(C)[C@H](CC(C)C)C(=O)N[C@@H](Cc1ccc(O)cc1)C(=O)N[C@@H](Cc1ccc(O)cc1)C(=O)O
REMARK SMILES IDX 18 1 17 2 15 3 16 4 14 5 12 6 13 7 10 9 11 10 8 12 9 13 7 16
REMARK SMILES IDX 6 17 5 18 4 19 3 20 2 21 1 22 19 23 20 24 21 25 22 26 23 27
REMARK SMILES IDX 24 28 25 29 26 30 27 31 28 32 29 34 30 35 31 36 32 37 37 38
REMARK SMILES IDX 33 39 36 40 34 41 35 42 38 44 39 45 40 46 41 48 42 49 43 50
REMARK SMILES IDX 44 51 49 52 45 53 48 54 46 55 47 56 50 58 51 59 52 60
REMARK H PARENT 14 8 11 11 9 14 9 15 28 33 35 43 40 47 47 57 52 61
ROOT
ATOM      1  O   UNL     1      -1.797   3.471  -7.615  1.00  0.00    -0.272 OA
ATOM      2  C   UNL     1      -1.293   2.338  -7.599  1.00  0.00     0.245 C 
ENDROOT
BRANCH   2   3
ATOM      3  C   UNL     1      -1.890   1.275  -6.644  1.00  0.00     0.168 C 
ATOM      4  C   UNL     1      -2.288   1.904  -5.313  1.00  0.00     0.041 C 
BRANCH   3   5
ATOM      5  N   UNL     1      -2.969   0.481  -7.212  1.00  0.00    -0.342 N 
ATOM      6  C   UNL     1      -2.734  -0.729  -7.831  1.00  0.00     0.251 C 
ATOM      7  O   UNL     1      -1.614  -1.203  -7.987  1.00  0.00    -0.272 OA
ATOM      8  H   UNL     1      -3.938   0.788  -7.175  1.00  0.00     0.164 HD
BRANCH   6   9
ATOM      9  C   UNL     1      -4.030  -1.455  -8.226  1.00  0.00     0.219 C 
BRANCH   9  10
ATOM     10  O   UNL     1      -4.980  -1.511  -7.155  1.00  0.00    -0.382 OA
ATOM     11  H   UNL     1      -5.021  -0.584  -6.834  1.00  0.00     0.211 HD
ENDBRANCH   9  10
BRANCH   9  12
ATOM     12  C   UNL     1      -4.682  -0.883  -9.512  1.00  0.00     0.089 C 
BRANCH  12  13
ATOM     13  N   UNL     1      -3.657  -0.112 -10.252  1.00  0.00    -0.325 NA
ATOM     14  H   UNL     1      -3.866   0.885 -10.176  1.00  0.00     0.119 HD
ATOM     15  H   UNL     1      -3.737  -0.327 -11.249  1.00  0.00     0.119 HD
ENDBRANCH  12  13
BRANCH  12  16
ATOM     16  C   UNL     1      -5.351  -1.916 -10.450  1.00  0.00     0.022 C 
BRANCH  16  17
ATOM     17  C   UNL     1      -6.087  -1.420 -11.702  1.00  0.00     0.002 C 
BRANCH  17  18
ATOM     18  C   UNL     1      -7.438  -2.084 -11.961  1.00  0.00     0.000 C 
BRANCH  18  19
ATOM     19  C   UNL     1      -8.109  -2.646 -10.701  1.00  0.00    -0.000 C 
BRANCH  19  20
ATOM     20  C   UNL     1      -9.437  -1.984 -10.322  1.00  0.00    -0.000 C 
BRANCH  20  21
ATOM     21  C   UNL     1     -10.185  -2.732  -9.215  1.00  0.00    -0.003 C 
ATOM     22  C   UNL     1     -11.653  -2.917  -9.564  1.00  0.00     0.004 C 
ENDBRANCH  20  21
ENDBRANCH  19  20
ENDBRANCH  18  19
ENDBRANCH  17  18
ENDBRANCH  16  17
ENDBRANCH  12  16
ENDBRANCH   9  12
ENDBRANCH   6   9
ENDBRANCH   3   5
ENDBRANCH   2   3
BRANCH   2  23
ATOM     23  N   UNL     1      -0.295   2.008  -8.510  1.00  0.00    -0.332 N 
ATOM     24  C   UNL     1      -0.454   2.041  -9.956  1.00  0.00     0.147 C 
BRANCH  23  25
ATOM     25  C   UNL     1       1.085   1.712  -8.038  1.00  0.00     0.174 C 
BRANCH  25  26
ATOM     26  C   UNL     1       1.938   2.986  -7.833  1.00  0.00     0.038 C 
BRANCH  26  27
ATOM     27  C   UNL     1       2.419   3.282  -6.395  1.00  0.00    -0.015 C 
ATOM     28  C   UNL     1       1.845   2.301  -5.373  1.00  0.00     0.007 C 
ATOM     29  C   UNL     1       3.938   3.364  -6.267  1.00  0.00     0.007 C 
ENDBRANCH  26  27
ENDBRANCH  25  26
BRANCH  25  30
ATOM     30  C   UNL     1       1.748   0.661  -8.958  1.00  0.00     0.243 C 
ATOM     31  O   UNL     1       1.434  -0.527  -8.920  1.00  0.00    -0.273 OA
ATOM     32  N   UNL     1       2.710   1.141  -9.809  1.00  0.00    -0.342 N 
ATOM     33  H   UNL     1       2.815   2.156  -9.882  1.00  0.00     0.164 HD
BRANCH  32  34
ATOM     34  C   UNL     1       3.462   0.287 -10.732  1.00  0.00     0.175 C 
BRANCH  34  35
ATOM     35  C   UNL     1       2.876   0.345 -12.151  1.00  0.00     0.070 C 
BRANCH  35  36
ATOM     36  C   UNL     1       1.649  -0.523 -12.313  1.00  0.00    -0.045 A 
ATOM     37  C   UNL     1       1.715  -1.894 -12.019  1.00  0.00     0.007 A 
ATOM     38  C   UNL     1       0.442   0.016 -12.778  1.00  0.00     0.007 A 
ATOM     39  C   UNL     1       0.592  -2.706 -12.178  1.00  0.00     0.046 A 
ATOM     40  C   UNL     1      -0.682  -0.797 -12.939  1.00  0.00     0.046 A 
ATOM     41  C   UNL     1      -0.597  -2.152 -12.636  1.00  0.00     0.115 A 
BRANCH  41  42
ATOM     42  O   UNL     1      -1.670  -2.980 -12.781  1.00  0.00    -0.508 OA
ATOM     43  H   UNL     1      -2.253  -2.861 -12.013  1.00  0.00     0.293 HD
ENDBRANCH  41  42
ENDBRANCH  35  36
ENDBRANCH  34  35
BRANCH  34  44
ATOM     44  C   UNL     1       4.941   0.733 -10.700  1.00  0.00     0.243 C 
ATOM     45  O   UNL     1       5.477   1.422 -11.564  1.00  0.00    -0.273 OA
ATOM     46  N   UNL     1       5.660   0.175  -9.664  1.00  0.00    -0.341 N 
ATOM     47  H   UNL     1       5.199  -0.483  -9.041  1.00  0.00     0.164 HD
BRANCH  46  48
ATOM     48  C   UNL     1       7.095   0.396  -9.468  1.00  0.00     0.196 C 
BRANCH  48  49
ATOM     49  C   UNL     1       7.378   1.071  -8.116  1.00  0.00     0.072 C 
BRANCH  49  50
ATOM     50  C   UNL     1       7.877   2.490  -8.266  1.00  0.00    -0.045 A 
ATOM     51  C   UNL     1       9.106   2.863  -7.703  1.00  0.00     0.007 A 
ATOM     52  C   UNL     1       7.118   3.452  -8.945  1.00  0.00     0.007 A 
ATOM     53  C   UNL     1       9.570   4.173  -7.824  1.00  0.00     0.046 A 
ATOM     54  C   UNL     1       7.582   4.764  -9.066  1.00  0.00     0.046 A 
ATOM     55  C   UNL     1       8.806   5.113  -8.504  1.00  0.00     0.115 A 
BRANCH  55  56
ATOM     56  O   UNL     1       9.294   6.382  -8.599  1.00  0.00    -0.508 OA
ATOM     57  H   UNL     1       8.597   6.952  -8.960  1.00  0.00     0.293 HD
ENDBRANCH  55  56
ENDBRANCH  49  50
ENDBRANCH  48  49
BRANCH  48  58
ATOM     58  C   UNL     1       7.822  -0.954  -9.532  1.00  0.00     0.326 C 
ATOM     59  O   UNL     1       8.439  -1.504  -8.635  1.00  0.00    -0.250 OA
BRANCH  58  60
ATOM     60  O   UNL     1       7.722  -1.566 -10.739  1.00  0.00    -0.480 OA
ATOM     61  H   UNL     1       7.998  -0.867 -11.370  1.00  0.00     0.296 HD
ENDBRANCH  58  60
ENDBRANCH  48  58
ENDBRANCH  46  48
ENDBRANCH  34  44
ENDBRANCH  32  34
ENDBRANCH  25  30
ENDBRANCH  23  25
ENDBRANCH   2  23
TORSDOF 28
ENDMDL
MODEL 4
REMARK VINA RESULT:    -5.119      8.160     14.365
REMARK INTER + INTRA:         -18.886
REMARK INTER:                 -12.936
REMARK INTRA:                  -5.951
REMARK UNBOUND:                -6.135
REMARK SMILES CCCCCCC[C@H](N)[C@H](O)C(=O)N[C@H](C)C(=O)N(C)[C@H](CC(C)C)C(=O)N[C@@H](Cc1ccc(O)cc1)C(=O)N[C@@H](Cc1ccc(O)cc1)C(=O)O
REMARK SMILES IDX 18 1 17 2 15 3 16 4 14 5 12 6 13 7 10 9 11 10 8 12 9 13 7 16
REMARK SMILES IDX 6 17 5 18 4 19 3 20 2 21 1 22 19 23 20 24 21 25 22 26 23 27
REMARK SMILES IDX 24 28 25 29 26 30 27 31 28 32 29 34 30 35 31 36 32 37 37 38
REMARK SMILES IDX 33 39 36 40 34 41 35 42 38 44 39 45 40 46 41 48 42 49 43 50
REMARK SMILES IDX 44 51 49 52 45 53 48 54 46 55 47 56 50 58 51 59 52 60
REMARK H PARENT 14 8 11 11 9 14 9 15 28 33 35 43 40 47 47 57 52 61
ROOT
ATOM      1  O   UNL     1       4.732   1.131  -0.959  1.00  0.00    -0.272 OA
ATOM      2  C   UNL     1       5.194   2.182  -0.491  1.00  0.00     0.245 C 
ENDROOT
BRANCH   2   3
ATOM      3  C   UNL     1       4.728   3.530  -1.096  1.00  0.00     0.168 C 
ATOM      4  C   UNL     1       5.491   3.840  -2.379  1.00  0.00     0.041 C 
BRANCH   3   5
ATOM      5  N   UNL     1       3.290   3.654  -1.277  1.00  0.00    -0.342 N 
ATOM      6  C   UNL     1       2.593   4.756  -0.828  1.00  0.00     0.251 C 
ATOM      7  O   UNL     1       3.113   5.682  -0.215  1.00  0.00    -0.272 OA
ATOM      8  H   UNL     1       2.744   2.933  -1.741  1.00  0.00     0.164 HD
BRANCH   6   9
ATOM      9  C   UNL     1       1.116   4.738  -1.254  1.00  0.00     0.219 C 
BRANCH   9  10
ATOM     10  O   UNL     1       0.243   5.256  -0.242  1.00  0.00    -0.382 OA
ATOM     11  H   UNL     1       0.103   6.189  -0.514  1.00  0.00     0.211 HD
ENDBRANCH   9  10
BRANCH   9  12
ATOM     12  C   UNL     1       0.865   5.443  -2.612  1.00  0.00     0.089 C 
BRANCH  12  13
ATOM     13  N   UNL     1       2.156   5.553  -3.328  1.00  0.00    -0.325 NA
ATOM     14  H   UNL     1       1.988   5.901  -4.273  1.00  0.00     0.119 HD
ATOM     15  H   UNL     1       2.546   4.616  -3.453  1.00  0.00     0.119 HD
ENDBRANCH  12  13
BRANCH  12  16
ATOM     16  C   UNL     1      -0.197   4.791  -3.529  1.00  0.00     0.022 C 
BRANCH  16  17
ATOM     17  C   UNL     1      -0.385   3.268  -3.488  1.00  0.00     0.002 C 
BRANCH  17  18
ATOM     18  C   UNL     1      -1.163   2.683  -4.665  1.00  0.00     0.000 C 
BRANCH  18  19
ATOM     19  C   UNL     1      -2.636   2.387  -4.354  1.00  0.00    -0.000 C 
BRANCH  19  20
ATOM     20  C   UNL     1      -3.648   3.158  -5.208  1.00  0.00    -0.000 C 
BRANCH  20  21
ATOM     21  C   UNL     1      -4.332   4.296  -4.446  1.00  0.00    -0.003 C 
ATOM     22  C   UNL     1      -3.748   5.647  -4.826  1.00  0.00     0.004 C 
ENDBRANCH  20  21
ENDBRANCH  19  20
ENDBRANCH  18  19
ENDBRANCH  17  18
ENDBRANCH  16  17
ENDBRANCH  12  16
ENDBRANCH   9  12
ENDBRANCH   6   9
ENDBRANCH   3   5
ENDBRANCH   2   3
BRANCH   2  23
ATOM     23  N   UNL     1       6.015   2.143   0.631  1.00  0.00    -0.332 N 
ATOM     24  C   UNL     1       6.897   1.036   0.970  1.00  0.00     0.147 C 
BRANCH  23  25
ATOM     25  C   UNL     1       6.135   3.333   1.516  1.00  0.00     0.174 C 
BRANCH  25  26
ATOM     26  C   UNL     1       7.567   3.534   2.064  1.00  0.00     0.038 C 
BRANCH  26  27
ATOM     27  C   UNL     1       7.738   3.516   3.600  1.00  0.00    -0.015 C 
ATOM     28  C   UNL     1       8.723   2.444   4.065  1.00  0.00     0.007 C 
ATOM     29  C   UNL     1       8.108   4.876   4.186  1.00  0.00     0.007 C 
ENDBRANCH  26  27
ENDBRANCH  25  26
BRANCH  25  30
ATOM     30  C   UNL     1       5.049   3.291   2.616  1.00  0.00     0.243 C 
ATOM     31  O   UNL     1       4.757   2.249   3.200  1.00  0.00    -0.273 OA
ATOM     32  N   UNL     1       4.433   4.485   2.888  1.00  0.00    -0.342 N 
ATOM     33  H   UNL     1       4.827   5.329   2.464  1.00  0.00     0.164 HD
BRANCH  32  34
ATOM     34  C   UNL     1       3.363   4.628   3.879  1.00  0.00     0.175 C 
BRANCH  34  35
ATOM     35  C   UNL     1       3.779   5.571   5.018  1.00  0.00     0.070 C 
BRANCH  35  36
ATOM     36  C   UNL     1       3.238   5.138   6.362  1.00  0.00    -0.045 A 
ATOM     37  C   UNL     1       3.551   5.875   7.515  1.00  0.00     0.007 A 
ATOM     38  C   UNL     1       2.443   3.992   6.482  1.00  0.00     0.007 A 
ATOM     39  C   UNL     1       3.069   5.476   8.762  1.00  0.00     0.046 A 
ATOM     40  C   UNL     1       1.960   3.590   7.730  1.00  0.00     0.046 A 
ATOM     41  C   UNL     1       2.277   4.338   8.859  1.00  0.00     0.115 A 
BRANCH  41  42
ATOM     42  O   UNL     1       1.829   3.980  10.096  1.00  0.00    -0.508 OA
ATOM     43  H   UNL     1       0.860   4.064  10.105  1.00  0.00     0.293 HD
ENDBRANCH  41  42
ENDBRANCH  35  36
ENDBRANCH  34  35
BRANCH  34  44
ATOM     44  C   UNL     1       2.097   5.128   3.148  1.00  0.00     0.243 C 
ATOM     45  O   UNL     1       1.404   4.435   2.408  1.00  0.00    -0.273 OA
ATOM     46  N   UNL     1       1.877   6.481   3.295  1.00  0.00    -0.341 N 
ATOM     47  H   UNL     1       2.546   7.036   3.823  1.00  0.00     0.164 HD
BRANCH  46  48
ATOM     48  C   UNL     1       0.778   7.195   2.640  1.00  0.00     0.196 C 
BRANCH  48  49
ATOM     49  C   UNL     1       0.002   8.067   3.640  1.00  0.00     0.072 C 
BRANCH  49  50
ATOM     50  C   UNL     1      -0.294   7.345   4.935  1.00  0.00    -0.045 A 
ATOM     51  C   UNL     1       0.277   7.797   6.134  1.00  0.00     0.007 A 
ATOM     52  C   UNL     1      -1.117   6.212   4.956  1.00  0.00     0.007 A 
ATOM     53  C   UNL     1       0.021   7.131   7.332  1.00  0.00     0.046 A 
ATOM     54  C   UNL     1      -1.371   5.544   6.156  1.00  0.00     0.046 A 
ATOM     55  C   UNL     1      -0.800   6.010   7.335  1.00  0.00     0.115 A 
BRANCH  55  56
ATOM     56  O   UNL     1      -1.023   5.387   8.527  1.00  0.00    -0.508 OA
ATOM     57  H   UNL     1      -0.165   5.203   8.941  1.00  0.00     0.293 HD
ENDBRANCH  55  56
ENDBRANCH  49  50
ENDBRANCH  48  49
BRANCH  48  58
ATOM     58  C   UNL     1       1.352   8.078   1.523  1.00  0.00     0.326 C 
ATOM     59  O   UNL     1       0.735   8.820   0.776  1.00  0.00    -0.250 OA
BRANCH  58  60
ATOM     60  O   UNL     1       2.702   7.995   1.407  1.00  0.00    -0.480 OA
ATOM     61  H   UNL     1       2.882   8.433   0.547  1.00  0.00     0.296 HD
ENDBRANCH  58  60
ENDBRANCH  48  58
ENDBRANCH  46  48
ENDBRANCH  34  44
ENDBRANCH  32  34
ENDBRANCH  25  30
ENDBRANCH  23  25
ENDBRANCH   2  23
TORSDOF 28
ENDMDL
MODEL 5
REMARK VINA RESULT:    -5.103      2.063      6.094
REMARK INTER + INTRA:         -18.846
REMARK INTER:                 -14.052
REMARK INTRA:                  -4.794
REMARK UNBOUND:                -6.135
REMARK SMILES CCCCCCC[C@H](N)[C@H](O)C(=O)N[C@H](C)C(=O)N(C)[C@H](CC(C)C)C(=O)N[C@@H](Cc1ccc(O)cc1)C(=O)N[C@@H](Cc1ccc(O)cc1)C(=O)O
REMARK SMILES IDX 18 1 17 2 15 3 16 4 14 5 12 6 13 7 10 9 11 10 8 12 9 13 7 16
REMARK SMILES IDX 6 17 5 18 4 19 3 20 2 21 1 22 19 23 20 24 21 25 22 26 23 27
REMARK SMILES IDX 24 28 25 29 26 30 27 31 28 32 29 34 30 35 31 36 32 37 37 38
REMARK SMILES IDX 33 39 36 40 34 41 35 42 38 44 39 45 40 46 41 48 42 49 43 50
REMARK SMILES IDX 44 51 49 52 45 53 48 54 46 55 47 56 50 58 51 59 52 60
REMARK H PARENT 14 8 11 11 9 14 9 15 28 33 35 43 40 47 47 57 52 61
ROOT
ATOM      1  O   UNL     1      -4.546   3.212  -5.657  1.00  0.00    -0.272 OA
ATOM      2  C   UNL     1      -3.418   2.765  -5.908  1.00  0.00     0.245 C 
ENDROOT
BRANCH   2   3
ATOM      3  C   UNL     1      -3.079   1.318  -5.470  1.00  0.00     0.168 C 
ATOM      4  C   UNL     1      -3.290   1.144  -3.970  1.00  0.00     0.041 C 
BRANCH   3   5
ATOM      5  N   UNL     1      -3.745   0.276  -6.235  1.00  0.00    -0.342 N 
ATOM      6  C   UNL     1      -3.133  -0.348  -7.301  1.00  0.00     0.251 C 
ATOM      7  O   UNL     1      -2.015  -0.051  -7.708  1.00  0.00    -0.272 OA
ATOM      8  H   UNL     1      -4.689  -0.032  -6.014  1.00  0.00     0.164 HD
BRANCH   6   9
ATOM      9  C   UNL     1      -3.965  -1.510  -7.867  1.00  0.00     0.219 C 
BRANCH   9  10
ATOM     10  O   UNL     1      -4.782  -2.141  -6.873  1.00  0.00    -0.382 OA
ATOM     11  H   UNL     1      -4.437  -3.060  -6.839  1.00  0.00     0.211 HD
ENDBRANCH   9  10
BRANCH   9  12
ATOM     12  C   UNL     1      -4.812  -1.108  -9.102  1.00  0.00     0.089 C 
BRANCH  12  13
ATOM     13  N   UNL     1      -4.646   0.346  -9.330  1.00  0.00    -0.325 NA
ATOM     14  H   UNL     1      -4.117   0.749  -8.553  1.00  0.00     0.119 HD
ATOM     15  H   UNL     1      -5.564   0.795  -9.289  1.00  0.00     0.119 HD
ENDBRANCH  12  13
BRANCH  12  16
ATOM     16  C   UNL     1      -4.521  -1.887 -10.407  1.00  0.00     0.022 C 
BRANCH  16  17
ATOM     17  C   UNL     1      -3.303  -1.496 -11.255  1.00  0.00     0.002 C 
BRANCH  17  18
ATOM     18  C   UNL     1      -2.004  -2.207 -10.883  1.00  0.00     0.000 C 
BRANCH  18  19
ATOM     19  C   UNL     1      -1.168  -2.652 -12.090  1.00  0.00    -0.000 C 
BRANCH  19  20
ATOM     20  C   UNL     1      -0.065  -1.677 -12.512  1.00  0.00    -0.000 C 
BRANCH  20  21
ATOM     21  C   UNL     1       1.343  -2.199 -12.218  1.00  0.00    -0.003 C 
ATOM     22  C   UNL     1       2.404  -1.178 -12.598  1.00  0.00     0.004 C 
ENDBRANCH  20  21
ENDBRANCH  19  20
ENDBRANCH  18  19
ENDBRANCH  17  18
ENDBRANCH  16  17
ENDBRANCH  12  16
ENDBRANCH   9  12
ENDBRANCH   6   9
ENDBRANCH   3   5
ENDBRANCH   2   3
BRANCH   2  23
ATOM     23  N   UNL     1      -2.529   3.511  -6.675  1.00  0.00    -0.332 N 
ATOM     24  C   UNL     1      -2.682   3.770  -8.099  1.00  0.00     0.147 C 
BRANCH  23  25
ATOM     25  C   UNL     1      -1.390   4.219  -6.029  1.00  0.00     0.174 C 
BRANCH  25  26
ATOM     26  C   UNL     1      -1.343   5.726  -6.376  1.00  0.00     0.038 C 
BRANCH  26  27
ATOM     27  C   UNL     1      -2.116   6.684  -5.444  1.00  0.00    -0.015 C 
ATOM     28  C   UNL     1      -3.575   6.857  -5.863  1.00  0.00     0.007 C 
ATOM     29  C   UNL     1      -2.022   6.303  -3.968  1.00  0.00     0.007 C 
ENDBRANCH  26  27
ENDBRANCH  25  26
BRANCH  25  30
ATOM     30  C   UNL     1      -0.067   3.473  -6.316  1.00  0.00     0.243 C 
ATOM     31  O   UNL     1      -0.028   2.253  -6.462  1.00  0.00    -0.273 OA
ATOM     32  N   UNL     1       1.054   4.260  -6.389  1.00  0.00    -0.342 N 
ATOM     33  H   UNL     1       0.921   5.274  -6.398  1.00  0.00     0.164 HD
BRANCH  32  34
ATOM     34  C   UNL     1       2.396   3.722  -6.626  1.00  0.00     0.175 C 
BRANCH  34  35
ATOM     35  C   UNL     1       2.770   2.667  -5.574  1.00  0.00     0.070 C 
BRANCH  35  36
ATOM     36  C   UNL     1       2.709   3.203  -4.161  1.00  0.00    -0.045 A 
ATOM     37  C   UNL     1       3.574   4.234  -3.764  1.00  0.00     0.007 A 
ATOM     38  C   UNL     1       1.813   2.667  -3.227  1.00  0.00     0.007 A 
ATOM     39  C   UNL     1       3.535   4.725  -2.459  1.00  0.00     0.046 A 
ATOM     40  C   UNL     1       1.774   3.158  -1.920  1.00  0.00     0.046 A 
ATOM     41  C   UNL     1       2.636   4.184  -1.548  1.00  0.00     0.115 A 
BRANCH  41  42
ATOM     42  O   UNL     1       2.631   4.690  -0.282  1.00  0.00    -0.508 OA
ATOM     43  H   UNL     1       1.762   5.092  -0.117  1.00  0.00     0.293 HD
ENDBRANCH  41  42
ENDBRANCH  35  36
ENDBRANCH  34  35
BRANCH  34  44
ATOM     44  C   UNL     1       2.435   3.147  -8.060  1.00  0.00     0.243 C 
ATOM     45  O   UNL     1       2.412   3.828  -9.082  1.00  0.00    -0.273 OA
ATOM     46  N   UNL     1       2.367   1.771  -8.101  1.00  0.00    -0.341 N 
ATOM     47  H   UNL     1       2.270   1.255  -7.230  1.00  0.00     0.164 HD
BRANCH  46  48
ATOM     48  C   UNL     1       2.320   1.003  -9.347  1.00  0.00     0.196 C 
BRANCH  48  49
ATOM     49  C   UNL     1       3.621   0.211  -9.567  1.00  0.00     0.072 C 
BRANCH  49  50
ATOM     50  C   UNL     1       4.608   0.946 -10.444  1.00  0.00    -0.045 A 
ATOM     51  C   UNL     1       5.985   0.762 -10.253  1.00  0.00     0.007 A 
ATOM     52  C   UNL     1       4.170   1.830 -11.439  1.00  0.00     0.007 A 
ATOM     53  C   UNL     1       6.906   1.444 -11.048  1.00  0.00     0.046 A 
ATOM     54  C   UNL     1       5.092   2.514 -12.234  1.00  0.00     0.046 A 
ATOM     55  C   UNL     1       6.453   2.314 -12.032  1.00  0.00     0.115 A 
BRANCH  55  56
ATOM     56  O   UNL     1       7.386   2.963 -12.787  1.00  0.00    -0.508 OA
ATOM     57  H   UNL     1       7.013   3.814 -13.069  1.00  0.00     0.293 HD
ENDBRANCH  55  56
ENDBRANCH  49  50
ENDBRANCH  48  49
BRANCH  48  58
ATOM     58  C   UNL     1       1.131   0.034  -9.293  1.00  0.00     0.326 C 
ATOM     59  O   UNL     1       1.119  -1.097  -8.837  1.00  0.00    -0.250 OA
BRANCH  58  60
ATOM     60  O   UNL     1      -0.012   0.551  -9.812  1.00  0.00    -0.480 OA
ATOM     61  H   UNL     1      -0.704  -0.068  -9.493  1.00  0.00     0.296 HD
ENDBRANCH  58  60
ENDBRANCH  48  58
ENDBRANCH  46  48
ENDBRANCH  34  44
ENDBRANCH  32  34
ENDBRANCH  25  30
ENDBRANCH  23  25
ENDBRANCH   2  23
TORSDOF 28
ENDMDL
MODEL 6
REMARK VINA RESULT:    -5.096      1.596      3.041
REMARK INTER + INTRA:         -18.828
REMARK INTER:                 -12.697
REMARK INTRA:                  -6.130
REMARK UNBOUND:                -6.135
REMARK SMILES CCCCCCC[C@H](N)[C@H](O)C(=O)N[C@H](C)C(=O)N(C)[C@H](CC(C)C)C(=O)N[C@@H](Cc1ccc(O)cc1)C(=O)N[C@@H](Cc1ccc(O)cc1)C(=O)O
REMARK SMILES IDX 18 1 17 2 15 3 16 4 14 5 12 6 13 7 10 9 11 10 8 12 9 13 7 16
REMARK SMILES IDX 6 17 5 18 4 19 3 20 2 21 1 22 19 23 20 24 21 25 22 26 23 27
REMARK SMILES IDX 24 28 25 29 26 30 27 31 28 32 29 34 30 35 31 36 32 37 37 38
REMARK SMILES IDX 33 39 36 40 34 41 35 42 38 44 39 45 40 46 41 48 42 49 43 50
REMARK SMILES IDX 44 51 49 52 45 53 48 54 46 55 47 56 50 58 51 59 52 60
REMARK H PARENT 14 8 11 11 9 14 9 15 28 33 35 43 40 47 47 57 52 61
ROOT
ATOM      1  O   UNL     1      -0.992  -0.948  -8.555  1.00  0.00    -0.272 OA
ATOM      2  C   UNL     1      -2.136  -1.290  -8.890  1.00  0.00     0.245 C 
ENDROOT
BRANCH   2   3
ATOM      3  C   UNL     1      -3.222  -1.420  -7.792  1.00  0.00     0.168 C 
ATOM      4  C   UNL     1      -3.390  -2.875  -7.367  1.00  0.00     0.041 C 
BRANCH   3   5
ATOM      5  N   UNL     1      -3.044  -0.539  -6.649  1.00  0.00    -0.342 N 
ATOM      6  C   UNL     1      -3.574   0.734  -6.621  1.00  0.00     0.251 C 
ATOM      7  O   UNL     1      -4.191   1.230  -7.558  1.00  0.00    -0.272 OA
ATOM      8  H   UNL     1      -2.520  -0.828  -5.826  1.00  0.00     0.164 HD
BRANCH   6   9
ATOM      9  C   UNL     1      -3.384   1.427  -5.263  1.00  0.00     0.219 C 
BRANCH   9  10
ATOM     10  O   UNL     1      -3.788   0.605  -4.161  1.00  0.00    -0.382 OA
ATOM     11  H   UNL     1      -3.205  -0.182  -4.235  1.00  0.00     0.211 HD
ENDBRANCH   9  10
BRANCH   9  12
ATOM     12  C   UNL     1      -1.945   1.965  -5.050  1.00  0.00     0.089 C 
BRANCH  12  13
ATOM     13  N   UNL     1      -1.199   1.820  -6.321  1.00  0.00    -0.325 NA
ATOM     14  H   UNL     1      -1.201   0.837  -6.601  1.00  0.00     0.119 HD
ATOM     15  H   UNL     1      -0.215   2.047  -6.155  1.00  0.00     0.119 HD
ENDBRANCH  12  13
BRANCH  12  16
ATOM     16  C   UNL     1      -1.834   3.420  -4.532  1.00  0.00     0.022 C 
BRANCH  16  17
ATOM     17  C   UNL     1      -0.480   3.930  -4.021  1.00  0.00     0.002 C 
BRANCH  17  18
ATOM     18  C   UNL     1       0.214   4.939  -4.933  1.00  0.00     0.000 C 
BRANCH  18  19
ATOM     19  C   UNL     1       1.448   4.383  -5.656  1.00  0.00    -0.000 C 
BRANCH  19  20
ATOM     20  C   UNL     1       1.429   4.525  -7.180  1.00  0.00    -0.000 C 
BRANCH  20  21
ATOM     21  C   UNL     1       2.080   3.342  -7.901  1.00  0.00    -0.003 C 
ATOM     22  C   UNL     1       3.424   2.988  -7.284  1.00  0.00     0.004 C 
ENDBRANCH  20  21
ENDBRANCH  19  20
ENDBRANCH  18  19
ENDBRANCH  17  18
ENDBRANCH  16  17
ENDBRANCH  12  16
ENDBRANCH   9  12
ENDBRANCH   6   9
ENDBRANCH   3   5
ENDBRANCH   2   3
BRANCH   2  23
ATOM     23  N   UNL     1      -2.454  -1.430 -10.236  1.00  0.00    -0.332 N 
ATOM     24  C   UNL     1      -2.012  -2.530 -11.080  1.00  0.00     0.147 C 
BRANCH  23  25
ATOM     25  C   UNL     1      -3.408  -0.488 -10.884  1.00  0.00     0.174 C 
BRANCH  25  26
ATOM     26  C   UNL     1      -4.290  -1.168 -11.958  1.00  0.00     0.038 C 
BRANCH  26  27
ATOM     27  C   UNL     1      -5.797  -1.300 -11.645  1.00  0.00    -0.015 C 
ATOM     28  C   UNL     1      -6.533  -2.163 -12.670  1.00  0.00     0.007 C 
ATOM     29  C   UNL     1      -6.082  -1.790 -10.228  1.00  0.00     0.007 C 
ENDBRANCH  26  27
ENDBRANCH  25  26
BRANCH  25  30
ATOM     30  C   UNL     1      -2.656   0.762 -11.397  1.00  0.00     0.243 C 
ATOM     31  O   UNL     1      -2.745   1.140 -12.564  1.00  0.00    -0.273 OA
ATOM     32  N   UNL     1      -1.883   1.411 -10.470  1.00  0.00    -0.342 N 
ATOM     33  H   UNL     1      -1.972   1.121  -9.492  1.00  0.00     0.164 HD
BRANCH  32  34
ATOM     34  C   UNL     1      -1.080   2.596 -10.784  1.00  0.00     0.175 C 
BRANCH  34  35
ATOM     35  C   UNL     1      -1.046   3.577  -9.602  1.00  0.00     0.070 C 
BRANCH  35  36
ATOM     36  C   UNL     1      -2.409   4.142  -9.271  1.00  0.00    -0.045 A 
ATOM     37  C   UNL     1      -2.771   4.365  -7.933  1.00  0.00     0.007 A 
ATOM     38  C   UNL     1      -3.335   4.427 -10.283  1.00  0.00     0.007 A 
ATOM     39  C   UNL     1      -4.031   4.872  -7.617  1.00  0.00     0.046 A 
ATOM     40  C   UNL     1      -4.597   4.934  -9.968  1.00  0.00     0.046 A 
ATOM     41  C   UNL     1      -4.934   5.153  -8.636  1.00  0.00     0.115 A 
BRANCH  41  42
ATOM     42  O   UNL     1      -6.156   5.645  -8.284  1.00  0.00    -0.508 OA
ATOM     43  H   UNL     1      -6.666   4.928  -7.872  1.00  0.00     0.293 HD
ENDBRANCH  41  42
ENDBRANCH  35  36
ENDBRANCH  34  35
BRANCH  34  44
ATOM     44  C   UNL     1       0.336   2.123 -11.182  1.00  0.00     0.243 C 
ATOM     45  O   UNL     1       1.086   2.737 -11.937  1.00  0.00    -0.273 OA
ATOM     46  N   UNL     1       0.646   0.864 -10.714  1.00  0.00    -0.341 N 
ATOM     47  H   UNL     1      -0.055   0.346 -10.189  1.00  0.00     0.164 HD
BRANCH  46  48
ATOM     48  C   UNL     1       1.903   0.178 -11.019  1.00  0.00     0.196 C 
BRANCH  48  49
ATOM     49  C   UNL     1       2.903   0.296  -9.856  1.00  0.00     0.072 C 
BRANCH  49  50
ATOM     50  C   UNL     1       4.257   0.800 -10.302  1.00  0.00    -0.045 A 
ATOM     51  C   UNL     1       4.383   1.478 -11.523  1.00  0.00     0.007 A 
ATOM     52  C   UNL     1       5.400   0.581  -9.521  1.00  0.00     0.007 A 
ATOM     53  C   UNL     1       5.630   1.935 -11.950  1.00  0.00     0.046 A 
ATOM     54  C   UNL     1       6.648   1.038  -9.950  1.00  0.00     0.046 A 
ATOM     55  C   UNL     1       6.752   1.713 -11.162  1.00  0.00     0.115 A 
BRANCH  55  56
ATOM     56  O   UNL     1       7.952   2.174 -11.616  1.00  0.00    -0.508 OA
ATOM     57  H   UNL     1       7.828   2.509 -12.519  1.00  0.00     0.293 HD
ENDBRANCH  55  56
ENDBRANCH  49  50
ENDBRANCH  48  49
BRANCH  48  58
ATOM     58  C   UNL     1       1.609  -1.303 -11.296  1.00  0.00     0.326 C 
ATOM     59  O   UNL     1       1.531  -2.207 -10.480  1.00  0.00    -0.250 OA
BRANCH  58  60
ATOM     60  O   UNL     1       1.409  -1.578 -12.610  1.00  0.00    -0.480 OA
ATOM     61  H   UNL     1       1.939  -2.392 -12.754  1.00  0.00     0.296 HD
ENDBRANCH  58  60
ENDBRANCH  48  58
ENDBRANCH  46  48
ENDBRANCH  34  44
ENDBRANCH  32  34
ENDBRANCH  25  30
ENDBRANCH  23  25
ENDBRANCH   2  23
TORSDOF 28
ENDMDL
MODEL 7
REMARK VINA RESULT:    -5.090      2.187      7.270
REMARK INTER + INTRA:         -18.814
REMARK INTER:                 -13.359
REMARK INTRA:                  -5.455
REMARK UNBOUND:                -6.135
REMARK SMILES CCCCCCC[C@H](N)[C@H](O)C(=O)N[C@H](C)C(=O)N(C)[C@H](CC(C)C)C(=O)N[C@@H](Cc1ccc(O)cc1)C(=O)N[C@@H](Cc1ccc(O)cc1)C(=O)O
REMARK SMILES IDX 18 1 17 2 15 3 16 4 14 5 12 6 13 7 10 9 11 10 8 12 9 13 7 16
REMARK SMILES IDX 6 17 5 18 4 19 3 20 2 21 1 22 19 23 20 24 21 25 22 26 23 27
REMARK SMILES IDX 24 28 25 29 26 30 27 31 28 32 29 34 30 35 31 36 32 37 37 38
REMARK SMILES IDX 33 39 36 40 34 41 35 42 38 44 39 45 40 46 41 48 42 49 43 50
REMARK SMILES IDX 44 51 49 52 45 53 48 54 46 55 47 56 50 58 51 59 52 60
REMARK H PARENT 14 8 11 11 9 14 9 15 28 33 35 43 40 47 47 57 52 61
ROOT
ATOM      1  O   UNL     1      -1.369   5.677  -4.887  1.00  0.00    -0.272 OA
ATOM      2  C   UNL     1      -0.365   4.959  -5.002  1.00  0.00     0.245 C 
ENDROOT
BRANCH   2   3
ATOM      3  C   UNL     1      -0.334   3.602  -4.255  1.00  0.00     0.168 C 
ATOM      4  C   UNL     1       0.211   3.773  -2.842  1.00  0.00     0.041 C 
BRANCH   3   5
ATOM      5  N   UNL     1      -1.592   2.870  -4.267  1.00  0.00    -0.342 N 
ATOM      6  C   UNL     1      -1.897   1.962  -5.258  1.00  0.00     0.251 C 
ATOM      7  O   UNL     1      -1.164   1.734  -6.215  1.00  0.00    -0.272 OA
ATOM      8  H   UNL     1      -2.295   3.001  -3.543  1.00  0.00     0.164 HD
BRANCH   6   9
ATOM      9  C   UNL     1      -3.209   1.207  -4.990  1.00  0.00     0.219 C 
BRANCH   9  10
ATOM     10  O   UNL     1      -3.617   1.279  -3.618  1.00  0.00    -0.382 OA
ATOM     11  H   UNL     1      -4.546   0.961  -3.637  1.00  0.00     0.211 HD
ENDBRANCH   9  10
BRANCH   9  12
ATOM     12  C   UNL     1      -4.363   1.639  -5.931  1.00  0.00     0.089 C 
BRANCH  12  13
ATOM     13  N   UNL     1      -5.443   2.227  -5.107  1.00  0.00    -0.325 NA
ATOM     14  H   UNL     1      -5.144   2.253  -4.130  1.00  0.00     0.119 HD
ATOM     15  H   UNL     1      -6.251   1.599  -5.121  1.00  0.00     0.119 HD
ENDBRANCH  12  13
BRANCH  12  16
ATOM     16  C   UNL     1      -3.979   2.609  -7.074  1.00  0.00     0.022 C 
BRANCH  16  17
ATOM     17  C   UNL     1      -3.869   2.068  -8.507  1.00  0.00     0.002 C 
BRANCH  17  18
ATOM     18  C   UNL     1      -2.912   2.838  -9.414  1.00  0.00     0.000 C 
BRANCH  18  19
ATOM     19  C   UNL     1      -3.607   3.825 -10.361  1.00  0.00    -0.000 C 
BRANCH  19  20
ATOM     20  C   UNL     1      -3.470   3.502 -11.852  1.00  0.00    -0.000 C 
BRANCH  20  21
ATOM     21  C   UNL     1      -2.713   2.197 -12.115  1.00  0.00    -0.003 C 
ATOM     22  C   UNL     1      -1.317   2.466 -12.656  1.00  0.00     0.004 C 
ENDBRANCH  20  21
ENDBRANCH  19  20
ENDBRANCH  18  19
ENDBRANCH  17  18
ENDBRANCH  16  17
ENDBRANCH  12  16
ENDBRANCH   9  12
ENDBRANCH   6   9
ENDBRANCH   3   5
ENDBRANCH   2   3
BRANCH   2  23
ATOM     23  N   UNL     1       0.651   5.318  -5.882  1.00  0.00    -0.332 N 
ATOM     24  C   UNL     1       0.961   6.686  -6.270  1.00  0.00     0.147 C 
BRANCH  23  25
ATOM     25  C   UNL     1       1.595   4.291  -6.399  1.00  0.00     0.174 C 
BRANCH  25  26
ATOM     26  C   UNL     1       3.072   4.747  -6.341  1.00  0.00     0.038 C 
BRANCH  26  27
ATOM     27  C   UNL     1       3.872   4.372  -5.074  1.00  0.00    -0.015 C 
ATOM     28  C   UNL     1       3.814   5.461  -4.003  1.00  0.00     0.007 C 
ATOM     29  C   UNL     1       3.478   3.019  -4.486  1.00  0.00     0.007 C 
ENDBRANCH  26  27
ENDBRANCH  25  26
BRANCH  25  30
ATOM     30  C   UNL     1       1.147   3.812  -7.799  1.00  0.00     0.243 C 
ATOM     31  O   UNL     1       0.112   4.221  -8.325  1.00  0.00    -0.273 OA
ATOM     32  N   UNL     1       1.973   2.903  -8.408  1.00  0.00    -0.342 N 
ATOM     33  H   UNL     1       2.881   2.722  -7.973  1.00  0.00     0.164 HD
BRANCH  32  34
ATOM     34  C   UNL     1       1.693   2.321  -9.724  1.00  0.00     0.175 C 
BRANCH  34  35
ATOM     35  C   UNL     1       2.943   2.331 -10.617  1.00  0.00     0.070 C 
BRANCH  35  36
ATOM     36  C   UNL     1       4.207   1.995  -9.858  1.00  0.00    -0.045 A 
ATOM     37  C   UNL     1       4.847   2.980  -9.091  1.00  0.00     0.007 A 
ATOM     38  C   UNL     1       4.767   0.713  -9.927  1.00  0.00     0.007 A 
ATOM     39  C   UNL     1       6.022   2.683  -8.399  1.00  0.00     0.046 A 
ATOM     40  C   UNL     1       5.943   0.415  -9.235  1.00  0.00     0.046 A 
ATOM     41  C   UNL     1       6.560   1.404  -8.475  1.00  0.00     0.115 A 
BRANCH  41  42
ATOM     42  O   UNL     1       7.710   1.156  -7.786  1.00  0.00    -0.508 OA
ATOM     43  H   UNL     1       7.601   1.492  -6.881  1.00  0.00     0.293 HD
ENDBRANCH  41  42
ENDBRANCH  35  36
ENDBRANCH  34  35
BRANCH  34  44
ATOM     44  C   UNL     1       1.149   0.890  -9.508  1.00  0.00     0.243 C 
ATOM     45  O   UNL     1       1.282   0.247  -8.471  1.00  0.00    -0.273 OA
ATOM     46  N   UNL     1       0.602   0.334 -10.645  1.00  0.00    -0.341 N 
ATOM     47  H   UNL     1       0.620   0.865 -11.512  1.00  0.00     0.164 HD
BRANCH  46  48
ATOM     48  C   UNL     1       0.084  -1.035 -10.703  1.00  0.00     0.196 C 
BRANCH  48  49
ATOM     49  C   UNL     1      -1.382  -1.059 -11.169  1.00  0.00     0.072 C 
BRANCH  49  50
ATOM     50  C   UNL     1      -2.353  -1.236 -10.024  1.00  0.00    -0.045 A 
ATOM     51  C   UNL     1      -3.729  -1.329 -10.283  1.00  0.00     0.007 A 
ATOM     52  C   UNL     1      -1.904  -1.288  -8.699  1.00  0.00     0.007 A 
ATOM     53  C   UNL     1      -4.636  -1.479  -9.234  1.00  0.00     0.046 A 
ATOM     54  C   UNL     1      -2.812  -1.437  -7.648  1.00  0.00     0.046 A 
ATOM     55  C   UNL     1      -4.172  -1.532  -7.926  1.00  0.00     0.115 A 
BRANCH  55  56
ATOM     56  O   UNL     1      -5.091  -1.677  -6.929  1.00  0.00    -0.508 OA
ATOM     57  H   UNL     1      -4.617  -1.809  -6.092  1.00  0.00     0.293 HD
ENDBRANCH  55  56
ENDBRANCH  49  50
ENDBRANCH  48  49
BRANCH  48  58
ATOM     58  C   UNL     1       0.946  -1.854 -11.672  1.00  0.00     0.326 C 
ATOM     59  O   UNL     1       1.957  -1.490 -12.252  1.00  0.00    -0.250 OA
BRANCH  58  60
ATOM     60  O   UNL     1       0.496  -3.121 -11.859  1.00  0.00    -0.480 OA
ATOM     61  H   UNL     1      -0.244  -3.194 -11.219  1.00  0.00     0.296 HD
ENDBRANCH  58  60
ENDBRANCH  48  58
ENDBRANCH  46  48
ENDBRANCH  34  44
ENDBRANCH  32  34
ENDBRANCH  25  30
ENDBRANCH  23  25
ENDBRANCH   2  23
TORSDOF 28
ENDMDL
MODEL 8
REMARK VINA RESULT:    -4.908      2.881      6.522
REMARK INTER + INTRA:         -18.360
REMARK INTER:                 -13.967
REMARK INTRA:                  -4.393
REMARK UNBOUND:                -6.135
REMARK SMILES CCCCCCC[C@H](N)[C@H](O)C(=O)N[C@H](C)C(=O)N(C)[C@H](CC(C)C)C(=O)N[C@@H](Cc1ccc(O)cc1)C(=O)N[C@@H](Cc1ccc(O)cc1)C(=O)O
REMARK SMILES IDX 18 1 17 2 15 3 16 4 14 5 12 6 13 7 10 9 11 10 8 12 9 13 7 16
REMARK SMILES IDX 6 17 5 18 4 19 3 20 2 21 1 22 19 23 20 24 21 25 22 26 23 27
REMARK SMILES IDX 24 28 25 29 26 30 27 31 28 32 29 34 30 35 31 36 32 37 37 38
REMARK SMILES IDX 33 39 36 40 34 41 35 42 38 44 39 45 40 46 41 48 42 49 43 50
REMARK SMILES IDX 44 51 49 52 45 53 48 54 46 55 47 56 50 58 51 59 52 60
REMARK H PARENT 14 8 11 11 9 14 9 15 28 33 35 43 40 47 47 57 52 61
ROOT
ATOM      1  O   UNL     1      -3.534   3.874  -6.049  1.00  0.00    -0.272 OA
ATOM      2  C   UNL     1      -2.643   3.137  -6.495  1.00  0.00     0.245 C 
ENDROOT
BRANCH   2   3
ATOM      3  C   UNL     1      -2.219   1.901  -5.663  1.00  0.00     0.168 C 
ATOM      4  C   UNL     1      -2.742   2.004  -4.235  1.00  0.00     0.041 C 
BRANCH   3   5
ATOM      5  N   UNL     1      -2.542   0.617  -6.267  1.00  0.00    -0.342 N 
ATOM      6  C   UNL     1      -3.841   0.165  -6.365  1.00  0.00     0.251 C 
ATOM      7  O   UNL     1      -4.806   0.779  -5.921  1.00  0.00    -0.272 OA
ATOM      8  H   UNL     1      -1.822   0.004  -6.640  1.00  0.00     0.164 HD
BRANCH   6   9
ATOM      9  C   UNL     1      -3.957  -1.143  -7.164  1.00  0.00     0.219 C 
BRANCH   9  10
ATOM     10  O   UNL     1      -5.111  -1.911  -6.803  1.00  0.00    -0.382 OA
ATOM     11  H   UNL     1      -5.331  -2.399  -7.627  1.00  0.00     0.211 HD
ENDBRANCH   9  10
BRANCH   9  12
ATOM     12  C   UNL     1      -3.897  -0.927  -8.699  1.00  0.00     0.089 C 
BRANCH  12  13
ATOM     13  N   UNL     1      -4.198   0.495  -8.983  1.00  0.00    -0.325 NA
ATOM     14  H   UNL     1      -3.353   0.956  -9.323  1.00  0.00     0.119 HD
ATOM     15  H   UNL     1      -4.425   0.967  -8.104  1.00  0.00     0.119 HD
ENDBRANCH  12  13
BRANCH  12  16
ATOM     16  C   UNL     1      -2.575  -1.338  -9.390  1.00  0.00     0.022 C 
BRANCH  16  17
ATOM     17  C   UNL     1      -1.979  -0.422 -10.468  1.00  0.00     0.002 C 
BRANCH  17  18
ATOM     18  C   UNL     1      -1.601  -1.121 -11.772  1.00  0.00     0.000 C 
BRANCH  18  19
ATOM     19  C   UNL     1      -0.869  -2.456 -11.575  1.00  0.00    -0.000 C 
BRANCH  19  20
ATOM     20  C   UNL     1       0.526  -2.530 -12.202  1.00  0.00    -0.000 C 
BRANCH  20  21
ATOM     21  C   UNL     1       1.439  -1.379 -11.773  1.00  0.00    -0.003 C 
ATOM     22  C   UNL     1       1.844  -1.508 -10.313  1.00  0.00     0.004 C 
ENDBRANCH  20  21
ENDBRANCH  19  20
ENDBRANCH  18  19
ENDBRANCH  17  18
ENDBRANCH  16  17
ENDBRANCH  12  16
ENDBRANCH   9  12
ENDBRANCH   6   9
ENDBRANCH   3   5
ENDBRANCH   2   3
BRANCH   2  23
ATOM     23  N   UNL     1      -2.132   3.356  -7.770  1.00  0.00    -0.332 N 
ATOM     24  C   UNL     1      -2.933   3.716  -8.931  1.00  0.00     0.147 C 
BRANCH  23  25
ATOM     25  C   UNL     1      -0.661   3.357  -7.999  1.00  0.00     0.174 C 
BRANCH  25  26
ATOM     26  C   UNL     1      -0.103   1.955  -8.340  1.00  0.00     0.038 C 
BRANCH  26  27
ATOM     27  C   UNL     1       0.821   1.850  -9.573  1.00  0.00    -0.015 C 
ATOM     28  C   UNL     1       0.330   2.699 -10.746  1.00  0.00     0.007 C 
ATOM     29  C   UNL     1       2.284   2.156  -9.264  1.00  0.00     0.007 C 
ENDBRANCH  26  27
ENDBRANCH  25  26
BRANCH  25  30
ATOM     30  C   UNL     1       0.061   4.043  -6.817  1.00  0.00     0.243 C 
ATOM     31  O   UNL     1       0.010   5.260  -6.642  1.00  0.00    -0.273 OA
ATOM     32  N   UNL     1       0.764   3.209  -5.986  1.00  0.00    -0.342 N 
ATOM     33  H   UNL     1       0.643   2.201  -6.114  1.00  0.00     0.164 HD
BRANCH  32  34
ATOM     34  C   UNL     1       1.531   3.686  -4.832  1.00  0.00     0.175 C 
BRANCH  34  35
ATOM     35  C   UNL     1       0.836   3.323  -3.511  1.00  0.00     0.070 C 
BRANCH  35  36
ATOM     36  C   UNL     1       0.405   4.540  -2.724  1.00  0.00    -0.045 A 
ATOM     37  C   UNL     1      -0.457   5.483  -3.305  1.00  0.00     0.007 A 
ATOM     38  C   UNL     1       0.873   4.756  -1.421  1.00  0.00     0.007 A 
ATOM     39  C   UNL     1      -0.849   6.616  -2.591  1.00  0.00     0.046 A 
ATOM     40  C   UNL     1       0.482   5.891  -0.706  1.00  0.00     0.046 A 
ATOM     41  C   UNL     1      -0.378   6.811  -1.298  1.00  0.00     0.115 A 
BRANCH  41  42
ATOM     42  O   UNL     1      -0.782   7.932  -0.636  1.00  0.00    -0.508 OA
ATOM     43  H   UNL     1      -0.094   8.171   0.007  1.00  0.00     0.293 HD
ENDBRANCH  41  42
ENDBRANCH  35  36
ENDBRANCH  34  35
BRANCH  34  44
ATOM     44  C   UNL     1       2.952   3.086  -4.921  1.00  0.00     0.243 C 
ATOM     45  O   UNL     1       3.408   2.264  -4.132  1.00  0.00    -0.273 OA
ATOM     46  N   UNL     1       3.729   3.659  -5.906  1.00  0.00    -0.341 N 
ATOM     47  H   UNL     1       3.343   4.420  -6.459  1.00  0.00     0.164 HD
BRANCH  46  48
ATOM     48  C   UNL     1       5.131   3.302  -6.135  1.00  0.00     0.196 C 
BRANCH  48  49
ATOM     49  C   UNL     1       5.539   3.547  -7.598  1.00  0.00     0.072 C 
BRANCH  49  50
ATOM     50  C   UNL     1       6.427   2.453  -8.145  1.00  0.00    -0.045 A 
ATOM     51  C   UNL     1       5.883   1.456  -8.967  1.00  0.00     0.007 A 
ATOM     52  C   UNL     1       7.790   2.405  -7.827  1.00  0.00     0.007 A 
ATOM     53  C   UNL     1       6.690   0.434  -9.467  1.00  0.00     0.046 A 
ATOM     54  C   UNL     1       8.599   1.381  -8.326  1.00  0.00     0.046 A 
ATOM     55  C   UNL     1       8.041   0.404  -9.144  1.00  0.00     0.115 A 
BRANCH  55  56
ATOM     56  O   UNL     1       8.795  -0.612  -9.652  1.00  0.00    -0.508 OA
ATOM     57  H   UNL     1       9.600  -0.232 -10.037  1.00  0.00     0.293 HD
ENDBRANCH  55  56
ENDBRANCH  49  50
ENDBRANCH  48  49
BRANCH  48  58
ATOM     58  C   UNL     1       6.018   4.141  -5.205  1.00  0.00     0.326 C 
ATOM     59  O   UNL     1       6.615   5.168  -5.483  1.00  0.00    -0.250 OA
BRANCH  58  60
ATOM     60  O   UNL     1       6.101   3.646  -3.945  1.00  0.00    -0.480 OA
ATOM     61  H   UNL     1       5.638   4.323  -3.405  1.00  0.00     0.296 HD
ENDBRANCH  58  60
ENDBRANCH  48  58
ENDBRANCH  46  48
ENDBRANCH  34  44
ENDBRANCH  32  34
ENDBRANCH  25  30
ENDBRANCH  23  25
ENDBRANCH   2  23
TORSDOF 28
ENDMDL
MODEL 9
REMARK VINA RESULT:    -4.889      2.762      8.489
REMARK INTER + INTRA:         -18.312
REMARK INTER:                 -12.371
REMARK INTRA:                  -5.941
REMARK UNBOUND:                -6.135
REMARK SMILES CCCCCCC[C@H](N)[C@H](O)C(=O)N[C@H](C)C(=O)N(C)[C@H](CC(C)C)C(=O)N[C@@H](Cc1ccc(O)cc1)C(=O)N[C@@H](Cc1ccc(O)cc1)C(=O)O
REMARK SMILES IDX 18 1 17 2 15 3 16 4 14 5 12 6 13 7 10 9 11 10 8 12 9 13 7 16
REMARK SMILES IDX 6 17 5 18 4 19 3 20 2 21 1 22 19 23 20 24 21 25 22 26 23 27
REMARK SMILES IDX 24 28 25 29 26 30 27 31 28 32 29 34 30 35 31 36 32 37 37 38
REMARK SMILES IDX 33 39 36 40 34 41 35 42 38 44 39 45 40 46 41 48 42 49 43 50
REMARK SMILES IDX 44 51 49 52 45 53 48 54 46 55 47 56 50 58 51 59 52 60
REMARK H PARENT 14 8 11 11 9 14 9 15 28 33 35 43 40 47 47 57 52 61
ROOT
ATOM      1  O   UNL     1       5.413   5.427  -7.990  1.00  0.00    -0.272 OA
ATOM      2  C   UNL     1       5.660   4.225  -8.170  1.00  0.00     0.245 C 
ENDROOT
BRANCH   2   3
ATOM      3  C   UNL     1       5.988   3.343  -6.940  1.00  0.00     0.168 C 
ATOM      4  C   UNL     1       7.472   3.420  -6.599  1.00  0.00     0.041 C 
BRANCH   3   5
ATOM      5  N   UNL     1       5.151   3.584  -5.775  1.00  0.00    -0.342 N 
ATOM      6  C   UNL     1       3.837   3.169  -5.724  1.00  0.00     0.251 C 
ATOM      7  O   UNL     1       3.268   2.611  -6.656  1.00  0.00    -0.272 OA
ATOM      8  H   UNL     1       5.503   4.069  -4.953  1.00  0.00     0.164 HD
BRANCH   6   9
ATOM      9  C   UNL     1       3.193   3.402  -4.348  1.00  0.00     0.219 C 
BRANCH   9  10
ATOM     10  O   UNL     1       4.036   2.988  -3.266  1.00  0.00    -0.382 OA
ATOM     11  H   UNL     1       4.118   3.797  -2.714  1.00  0.00     0.211 HD
ENDBRANCH   9  10
BRANCH   9  12
ATOM     12  C   UNL     1       2.709   4.861  -4.142  1.00  0.00     0.089 C 
BRANCH  12  13
ATOM     13  N   UNL     1       2.866   5.591  -5.420  1.00  0.00    -0.325 NA
ATOM     14  H   UNL     1       2.293   6.436  -5.397  1.00  0.00     0.119 HD
ATOM     15  H   UNL     1       2.475   5.023  -6.176  1.00  0.00     0.119 HD
ENDBRANCH  12  13
BRANCH  12  16
ATOM     16  C   UNL     1       1.265   5.027  -3.609  1.00  0.00     0.022 C 
BRANCH  16  17
ATOM     17  C   UNL     1       0.246   5.811  -4.447  1.00  0.00     0.002 C 
BRANCH  17  18
ATOM     18  C   UNL     1      -1.141   5.938  -3.821  1.00  0.00     0.000 C 
BRANCH  18  19
ATOM     19  C   UNL     1      -2.014   7.030  -4.453  1.00  0.00    -0.000 C 
BRANCH  19  20
ATOM     20  C   UNL     1      -2.905   6.564  -5.608  1.00  0.00    -0.000 C 
BRANCH  20  21
ATOM     21  C   UNL     1      -3.489   5.166  -5.387  1.00  0.00    -0.003 C 
ATOM     22  C   UNL     1      -4.601   5.188  -4.350  1.00  0.00     0.004 C 
ENDBRANCH  20  21
ENDBRANCH  19  20
ENDBRANCH  18  19
ENDBRANCH  17  18
ENDBRANCH  16  17
ENDBRANCH  12  16
ENDBRANCH   9  12
ENDBRANCH   6   9
ENDBRANCH   3   5
ENDBRANCH   2   3
BRANCH   2  23
ATOM     23  N   UNL     1       5.521   3.669  -9.438  1.00  0.00    -0.332 N 
ATOM     24  C   UNL     1       5.238   4.429 -10.646  1.00  0.00     0.147 C 
BRANCH  23  25
ATOM     25  C   UNL     1       5.789   2.221  -9.656  1.00  0.00     0.174 C 
BRANCH  25  26
ATOM     26  C   UNL     1       7.124   1.960 -10.392  1.00  0.00     0.038 C 
BRANCH  26  27
ATOM     27  C   UNL     1       8.384   1.787  -9.516  1.00  0.00    -0.015 C 
ATOM     28  C   UNL     1       8.564   0.350  -9.027  1.00  0.00     0.007 C 
ATOM     29  C   UNL     1       9.662   2.291 -10.183  1.00  0.00     0.007 C 
ENDBRANCH  26  27
ENDBRANCH  25  26
BRANCH  25  30
ATOM     30  C   UNL     1       4.568   1.550 -10.326  1.00  0.00     0.243 C 
ATOM     31  O   UNL     1       4.659   0.960 -11.402  1.00  0.00    -0.273 OA
ATOM     32  N   UNL     1       3.382   1.661  -9.646  1.00  0.00    -0.342 N 
ATOM     33  H   UNL     1       3.415   2.040  -8.696  1.00  0.00     0.164 HD
BRANCH  32  34
ATOM     34  C   UNL     1       2.119   1.110 -10.143  1.00  0.00     0.175 C 
BRANCH  34  35
ATOM     35  C   UNL     1       1.905  -0.330  -9.651  1.00  0.00     0.070 C 
BRANCH  35  36
ATOM     36  C   UNL     1       0.814  -1.051 -10.411  1.00  0.00    -0.045 A 
ATOM     37  C   UNL     1       1.133  -1.801 -11.554  1.00  0.00     0.007 A 
ATOM     38  C   UNL     1      -0.523  -0.966 -10.003  1.00  0.00     0.007 A 
ATOM     39  C   UNL     1       0.132  -2.459 -12.269  1.00  0.00     0.046 A 
ATOM     40  C   UNL     1      -1.526  -1.623 -10.720  1.00  0.00     0.046 A 
ATOM     41  C   UNL     1      -1.188  -2.365 -11.847  1.00  0.00     0.115 A 
BRANCH  41  42
ATOM     42  O   UNL     1      -2.136  -3.021 -12.575  1.00  0.00    -0.508 OA
ATOM     43  H   UNL     1      -2.738  -2.360 -12.956  1.00  0.00     0.293 HD
ENDBRANCH  41  42
ENDBRANCH  35  36
ENDBRANCH  34  35
BRANCH  34  44
ATOM     44  C   UNL     1       0.977   2.049  -9.693  1.00  0.00     0.243 C 
ATOM     45  O   UNL     1       0.252   2.677 -10.459  1.00  0.00    -0.273 OA
ATOM     46  N   UNL     1       0.921   2.229  -8.327  1.00  0.00    -0.341 N 
ATOM     47  H   UNL     1       1.618   1.777  -7.740  1.00  0.00     0.164 HD
BRANCH  46  48
ATOM     48  C   UNL     1      -0.033   3.126  -7.671  1.00  0.00     0.196 C 
BRANCH  48  49
ATOM     49  C   UNL     1      -0.117   2.847  -6.161  1.00  0.00     0.072 C 
BRANCH  49  50
ATOM     50  C   UNL     1      -1.411   2.174  -5.764  1.00  0.00    -0.045 A 
ATOM     51  C   UNL     1      -2.181   1.513  -6.733  1.00  0.00     0.007 A 
ATOM     52  C   UNL     1      -1.870   2.216  -4.441  1.00  0.00     0.007 A 
ATOM     53  C   UNL     1      -3.383   0.900  -6.381  1.00  0.00     0.046 A 
ATOM     54  C   UNL     1      -3.074   1.603  -4.090  1.00  0.00     0.046 A 
ATOM     55  C   UNL     1      -3.821   0.949  -5.064  1.00  0.00     0.115 A 
BRANCH  55  56
ATOM     56  O   UNL     1      -5.002   0.338  -4.762  1.00  0.00    -0.508 OA
ATOM     57  H   UNL     1      -5.577   0.985  -4.322  1.00  0.00     0.293 HD
ENDBRANCH  55  56
ENDBRANCH  49  50
ENDBRANCH  48  49
BRANCH  48  58
ATOM     58  C   UNL     1       0.407   4.578  -7.902  1.00  0.00     0.326 C 
ATOM     59  O   UNL     1       1.550   5.002  -7.970  1.00  0.00    -0.250 OA
BRANCH  58  60
ATOM     60  O   UNL     1      -0.629   5.440  -8.056  1.00  0.00    -0.480 OA
ATOM     61  H   UNL     1      -0.661   5.584  -9.027  1.00  0.00     0.296 HD
ENDBRANCH  58  60
ENDBRANCH  48  58
ENDBRANCH  46  48
ENDBRANCH  34  44
ENDBRANCH  32  34
ENDBRANCH  25  30
ENDBRANCH  23  25
ENDBRANCH   2  23
TORSDOF 28
ENDMDL
MODEL 10
REMARK VINA RESULT:    -4.782      2.643      6.652
REMARK INTER + INTRA:         -18.047
REMARK INTER:                 -13.007
REMARK INTRA:                  -5.040
REMARK UNBOUND:                -6.135
REMARK SMILES CCCCCCC[C@H](N)[C@H](O)C(=O)N[C@H](C)C(=O)N(C)[C@H](CC(C)C)C(=O)N[C@@H](Cc1ccc(O)cc1)C(=O)N[C@@H](Cc1ccc(O)cc1)C(=O)O
REMARK SMILES IDX 18 1 17 2 15 3 16 4 14 5 12 6 13 7 10 9 11 10 8 12 9 13 7 16
REMARK SMILES IDX 6 17 5 18 4 19 3 20 2 21 1 22 19 23 20 24 21 25 22 26 23 27
REMARK SMILES IDX 24 28 25 29 26 30 27 31 28 32 29 34 30 35 31 36 32 37 37 38
REMARK SMILES IDX 33 39 36 40 34 41 35 42 38 44 39 45 40 46 41 48 42 49 43 50
REMARK SMILES IDX 44 51 49 52 45 53 48 54 46 55 47 56 50 58 51 59 52 60
REMARK H PARENT 14 8 11 11 9 14 9 15 28 33 35 43 40 47 47 57 52 61
ROOT
ATOM      1  O   UNL     1      -3.669   0.006 -10.728  1.00  0.00    -0.272 OA
ATOM      2  C   UNL     1      -3.109   0.116  -9.627  1.00  0.00     0.245 C 
ENDROOT
BRANCH   2   3
ATOM      3  C   UNL     1      -2.226  -1.053  -9.124  1.00  0.00     0.168 C 
ATOM      4  C   UNL     1      -3.088  -2.223  -8.662  1.00  0.00     0.041 C 
BRANCH   3   5
ATOM      5  N   UNL     1      -1.188  -1.478 -10.051  1.00  0.00    -0.342 N 
ATOM      6  C   UNL     1       0.140  -1.169  -9.847  1.00  0.00     0.251 C 
ATOM      7  O   UNL     1       0.540  -0.488  -8.909  1.00  0.00    -0.272 OA
ATOM      8  H   UNL     1      -1.403  -2.018 -10.885  1.00  0.00     0.164 HD
BRANCH   6   9
ATOM      9  C   UNL     1       1.070  -1.839 -10.872  1.00  0.00     0.219 C 
BRANCH   9  10
ATOM     10  O   UNL     1       0.480  -2.995 -11.480  1.00  0.00    -0.382 OA
ATOM     11  H   UNL     1       1.072  -3.183 -12.241  1.00  0.00     0.211 HD
ENDBRANCH   9  10
BRANCH   9  12
ATOM     12  C   UNL     1       1.597  -0.857 -11.950  1.00  0.00     0.089 C 
BRANCH  12  13
ATOM     13  N   UNL     1       0.689   0.312 -12.001  1.00  0.00    -0.325 NA
ATOM     14  H   UNL     1       1.226   1.143 -12.257  1.00  0.00     0.119 HD
ATOM     15  H   UNL     1       0.339   0.500 -11.059  1.00  0.00     0.119 HD
ENDBRANCH  12  13
BRANCH  12  16
ATOM     16  C   UNL     1       3.061  -0.387 -11.781  1.00  0.00     0.022 C 
BRANCH  16  17
ATOM     17  C   UNL     1       3.336   1.060 -11.349  1.00  0.00     0.002 C 
BRANCH  17  18
ATOM     18  C   UNL     1       3.442   1.273  -9.841  1.00  0.00     0.000 C 
BRANCH  18  19
ATOM     19  C   UNL     1       4.693   2.049  -9.406  1.00  0.00    -0.000 C 
BRANCH  19  20
ATOM     20  C   UNL     1       6.003   1.583 -10.047  1.00  0.00    -0.000 C 
BRANCH  20  21
ATOM     21  C   UNL     1       6.607   0.359  -9.354  1.00  0.00    -0.003 C 
ATOM     22  C   UNL     1       7.947  -0.019  -9.965  1.00  0.00     0.004 C 
ENDBRANCH  20  21
ENDBRANCH  19  20
ENDBRANCH  18  19
ENDBRANCH  17  18
ENDBRANCH  16  17
ENDBRANCH  12  16
ENDBRANCH   9  12
ENDBRANCH   6   9
ENDBRANCH   3   5
ENDBRANCH   2   3
BRANCH   2  23
ATOM     23  N   UNL     1      -3.181   1.316  -8.928  1.00  0.00    -0.332 N 
ATOM     24  C   UNL     1      -4.089   2.407  -9.250  1.00  0.00     0.147 C 
BRANCH  23  25
ATOM     25  C   UNL     1      -2.387   1.509  -7.683  1.00  0.00     0.174 C 
BRANCH  25  26
ATOM     26  C   UNL     1      -3.253   1.948  -6.479  1.00  0.00     0.038 C 
BRANCH  26  27
ATOM     27  C   UNL     1      -3.365   0.956  -5.300  1.00  0.00    -0.015 C 
ATOM     28  C   UNL     1      -2.833   1.540  -3.992  1.00  0.00     0.007 C 
ATOM     29  C   UNL     1      -4.774   0.400  -5.106  1.00  0.00     0.007 C 
ENDBRANCH  26  27
ENDBRANCH  25  26
BRANCH  25  30
ATOM     30  C   UNL     1      -1.185   2.442  -7.958  1.00  0.00     0.243 C 
ATOM     31  O   UNL     1      -0.696   2.558  -9.080  1.00  0.00    -0.273 OA
ATOM     32  N   UNL     1      -0.702   3.122  -6.870  1.00  0.00    -0.342 N 
ATOM     33  H   UNL     1      -1.248   3.082  -6.005  1.00  0.00     0.164 HD
BRANCH  32  34
ATOM     34  C   UNL     1       0.448   4.029  -6.937  1.00  0.00     0.175 C 
BRANCH  34  35
ATOM     35  C   UNL     1       0.147   5.364  -6.239  1.00  0.00     0.070 C 
BRANCH  35  36
ATOM     36  C   UNL     1      -1.325   5.556  -5.952  1.00  0.00    -0.045 A 
ATOM     37  C   UNL     1      -1.864   5.118  -4.732  1.00  0.00     0.007 A 
ATOM     38  C   UNL     1      -2.171   6.148  -6.898  1.00  0.00     0.007 A 
ATOM     39  C   UNL     1      -3.224   5.278  -4.464  1.00  0.00     0.046 A 
ATOM     40  C   UNL     1      -3.533   6.307  -6.630  1.00  0.00     0.046 A 
ATOM     41  C   UNL     1      -4.047   5.871  -5.413  1.00  0.00     0.115 A 
BRANCH  41  42
ATOM     42  O   UNL     1      -5.370   6.006  -5.112  1.00  0.00    -0.508 OA
ATOM     43  H   UNL     1      -5.791   6.524  -5.818  1.00  0.00     0.293 HD
ENDBRANCH  41  42
ENDBRANCH  35  36
ENDBRANCH  34  35
BRANCH  34  44
ATOM     44  C   UNL     1       1.662   3.309  -6.308  1.00  0.00     0.243 C 
ATOM     45  O   UNL     1       2.106   2.231  -6.693  1.00  0.00    -0.273 OA
ATOM     46  N   UNL     1       2.138   3.927  -5.171  1.00  0.00    -0.341 N 
ATOM     47  H   UNL     1       1.662   4.756  -4.824  1.00  0.00     0.164 HD
BRANCH  46  48
ATOM     48  C   UNL     1       3.238   3.394  -4.365  1.00  0.00     0.196 C 
BRANCH  48  49
ATOM     49  C   UNL     1       4.376   4.419  -4.222  1.00  0.00     0.072 C 
BRANCH  49  50
ATOM     50  C   UNL     1       5.685   3.918  -4.788  1.00  0.00    -0.045 A 
ATOM     51  C   UNL     1       5.728   3.387  -6.086  1.00  0.00     0.007 A 
ATOM     52  C   UNL     1       6.861   3.955  -4.028  1.00  0.00     0.007 A 
ATOM     53  C   UNL     1       6.927   2.909  -6.614  1.00  0.00     0.046 A 
ATOM     54  C   UNL     1       8.061   3.476  -4.556  1.00  0.00     0.046 A 
ATOM     55  C   UNL     1       8.084   2.957  -5.846  1.00  0.00     0.115 A 
BRANCH  55  56
ATOM     56  O   UNL     1       9.235   2.478  -6.398  1.00  0.00    -0.508 OA
ATOM     57  H   UNL     1       9.585   3.149  -7.006  1.00  0.00     0.293 HD
ENDBRANCH  55  56
ENDBRANCH  49  50
ENDBRANCH  48  49
BRANCH  48  58
ATOM     58  C   UNL     1       2.704   3.022  -2.975  1.00  0.00     0.326 C 
ATOM     59  O   UNL     1       1.599   3.268  -2.517  1.00  0.00    -0.250 OA
BRANCH  58  60
ATOM     60  O   UNL     1       3.595   2.333  -2.219  1.00  0.00    -0.480 OA
ATOM     61  H   UNL     1       3.625   2.845  -1.381  1.00  0.00     0.296 HD
ENDBRANCH  58  60
ENDBRANCH  48  58
ENDBRANCH  46  48
ENDBRANCH  34  44
ENDBRANCH  32  34
ENDBRANCH  25  30
ENDBRANCH  23  25
ENDBRANCH   2  23
TORSDOF 28
ENDMDL
