MODEL 1
REMARK VINA RESULT:    -7.843      0.000      0.000
REMARK INTER + INTRA:         -32.073
REMARK INTER:                 -23.431
REMARK INTRA:                  -8.643
REMARK UNBOUND:                -8.643
REMARK SMILES C=C1C(=O)N[C@H](C)C(=O)N[C@@H](CC(C)C)C(=O)N[C@@H](C(=O)O)[C@H](C)C(=O)N[C@@H](CCCN=C(N)N)C(=O)N[C@@H](/C=C/C(C)=C/[C@H](C)[C@H](Cc2ccccc2)OC)[C@H](C)C(=O)N[C@@H](C(=O)O)CCC(=O)N1C
REMARK SMILES IDX 39 1 38 2 37 3 36 4 28 6 27 7 25 8 26 9 23 11 24 12 19 13
REMARK SMILES IDX 18 14 16 15 17 16 11 18 10 19 8 20 9 21 12 24 13 25 14 26
REMARK SMILES IDX 15 27 20 28 21 29 22 30 29 32 30 33 31 34 32 35 33 36 34 37
REMARK SMILES IDX 35 38 57 43 58 44 59 45 60 46 61 47 62 49 66 50 67 51 68 52
REMARK SMILES IDX 69 53 70 54 71 55 2 56 1 57 3 58 4 59 5 60 6 62 7 63 63 65
REMARK SMILES IDX 64 66 65 67 40 69 41 70 42 71 44 72 43 73 45 74 46 75 47 76
REMARK SMILES IDX 55 77 56 78 48 79 49 80 50 81 54 82 51 83 53 84 52 85
REMARK H PARENT 38 5 27 10 18 17 10 22 22 31 34 39 34 40 35 41 35 42 61 48
REMARK H PARENT 5 61 65 68
REMARK Flexibility Score:  369.900
ROOT
ATOM      1  C   UNL     1     -12.786   2.805   5.176  1.00  0.00     0.117 C 
ENDROOT
BRANCH   1   2
ATOM      2  N   UNL     1     -12.606   3.881   6.152  1.00  0.00    -0.347 N 
ATOM      3  O   UNL     1     -14.782   4.021   6.869  1.00  0.00    -0.273 OA
ATOM      4  C   UNL     1     -13.604   4.341   6.988  1.00  0.00     0.243 C 
ATOM      5  H   UNL     1     -11.692   4.291   6.272  1.00  0.00     0.164 HD
BRANCH   4   6
ATOM      6  C   UNL     1     -13.129   5.426   7.988  1.00  0.00     0.171 C 
BRANCH   6   7
ATOM      7  N   UNL     1     -13.645   6.748   7.596  1.00  0.00    -0.344 N 
ATOM      8  C   UNL     1     -13.114   7.417   6.514  1.00  0.00     0.226 C 
ATOM      9  O   UNL     1     -12.189   6.967   5.849  1.00  0.00    -0.275 OA
ATOM     10  H   UNL     1     -14.363   7.182   8.162  1.00  0.00     0.164 HD
BRANCH   8  11
ATOM     11  C   UNL     1     -13.790   8.741   6.206  1.00  0.00     0.109 C 
ATOM     12  C   UNL     1     -15.001   8.939   7.117  1.00  0.00     0.021 C 
BRANCH  11  13
ATOM     13  C   UNL     1     -12.751   9.880   6.252  1.00  0.00     0.204 C 
BRANCH  13  14
ATOM     14  N   UNL     1     -11.730   9.738   5.209  1.00  0.00    -0.340 N 
ATOM     15  C   UNL     1     -10.388   9.598   5.490  1.00  0.00     0.243 C 
ATOM     16  O   UNL     1      -9.958   9.522   6.639  1.00  0.00    -0.273 OA
ATOM     17  H   UNL     1     -11.999   9.944   4.243  1.00  0.00     0.164 HD
BRANCH  15  18
ATOM     18  C   UNL     1      -9.483   9.676   4.236  1.00  0.00     0.171 C 
BRANCH  18  19
ATOM     19  N   UNL     1      -8.264  10.372   4.642  1.00  0.00    -0.343 N 
ATOM     20  C   UNL     1      -7.687  11.351   3.857  1.00  0.00     0.242 CG0
ATOM     21  O   UNL     1      -8.096  11.590   2.723  1.00  0.00    -0.273 OA
ATOM     22  H   UNL     1      -7.821  10.128   5.521  1.00  0.00     0.164 HD
ATOM     23  G   UNL     1      -6.452  12.027   4.487  1.00  0.00     0.000 G0
ENDBRANCH  18  19
BRANCH  18  24
ATOM     24  C   UNL     1      -9.177   8.271   3.701  1.00  0.00     0.038 C 
BRANCH  24  25
ATOM     25  C   UNL     1      -8.036   7.537   4.436  1.00  0.00    -0.015 C 
ATOM     26  C   UNL     1      -6.953   7.035   3.481  1.00  0.00     0.007 C 
ATOM     27  C   UNL     1      -8.609   6.360   5.230  1.00  0.00     0.007 C 
ENDBRANCH  24  25
ENDBRANCH  18  24
ENDBRANCH  15  18
ENDBRANCH  13  14
BRANCH  13  28
ATOM     28  C   UNL     1     -13.372  11.271   6.093  1.00  0.00     0.327 C 
ATOM     29  O   UNL     1     -13.764  11.772   5.051  1.00  0.00    -0.250 OA
BRANCH  28  30
ATOM     30  O   UNL     1     -13.354  11.991   7.233  1.00  0.00    -0.480 OA
ATOM     31  H   UNL     1     -12.864  11.427   7.867  1.00  0.00     0.296 HD
ENDBRANCH  28  30
ENDBRANCH  13  28
ENDBRANCH  11  13
ENDBRANCH   8  11
ENDBRANCH   6   7
BRANCH   6  32
ATOM     32  C   UNL     1     -13.598   5.051   9.398  1.00  0.00     0.037 C 
BRANCH  32  33
ATOM     33  C   UNL     1     -14.486   6.138  10.021  1.00  0.00     0.026 C 
BRANCH  33  34
ATOM     34  C   UNL     1     -15.955   5.720  10.099  1.00  0.00     0.146 C 
BRANCH  34  35
ATOM     35  N   UNL     1     -16.772   6.757   9.484  1.00  0.00    -0.254 NA
ATOM     36  C   UNL     1     -17.428   6.473   8.421  1.00  0.00     0.185 C 
ATOM     37  N   UNL     1     -18.188   7.420   7.850  1.00  0.00    -0.370 N 
ATOM     38  N   UNL     1     -17.482   5.310   7.747  1.00  0.00    -0.370 N 
ATOM     39  H   UNL     1     -18.208   8.323   8.306  1.00  0.00     0.159 HD
ATOM     40  H   UNL     1     -18.861   7.231   7.126  1.00  0.00     0.159 HD
ATOM     41  H   UNL     1     -17.925   5.252   6.845  1.00  0.00     0.159 HD
ATOM     42  H   UNL     1     -16.947   4.514   8.055  1.00  0.00     0.159 HD
ENDBRANCH  34  35
ENDBRANCH  33  34
ENDBRANCH  32  33
ENDBRANCH   6  32
ENDBRANCH   4   6
ENDBRANCH   1   2
BRANCH   1  43
ATOM     43  C   UNL     1     -13.026   1.474   5.945  1.00  0.00     0.102 C 
ATOM     44  C   UNL     1     -11.953   0.407   5.671  1.00  0.00     0.020 C 
BRANCH  43  45
ATOM     45  C   UNL     1     -14.461   0.977   5.749  1.00  0.00     0.225 C 
ATOM     46  O   UNL     1     -14.900   0.605   4.664  1.00  0.00    -0.275 OA
ATOM     47  N   UNL     1     -15.273   1.059   6.856  1.00  0.00    -0.342 N 
ATOM     48  H   UNL     1     -14.864   1.220   7.766  1.00  0.00     0.164 HD
BRANCH  47  49
ATOM     49  C   UNL     1     -16.661   0.586   6.826  1.00  0.00     0.192 C 
BRANCH  49  50
ATOM     50  C   UNL     1     -17.485   1.343   7.871  1.00  0.00     0.047 C 
BRANCH  50  51
ATOM     51  C   UNL     1     -16.608   1.958   8.970  1.00  0.00     0.103 C 
BRANCH  51  52
ATOM     52  C   UNL     1     -16.310   0.962  10.089  1.00  0.00     0.226 C 
ATOM     53  O   UNL     1     -15.422   0.121   9.936  1.00  0.00    -0.275 OA
BRANCH  52  54
ATOM     54  N   UNL     1     -17.038   1.123  11.283  1.00  0.00    -0.311 N 
ATOM     55  C   UNL     1     -16.731   2.218  12.213  1.00  0.00     0.153 C 
BRANCH  54  56
ATOM     56  C   UNL     1     -18.084   0.251  11.626  1.00  0.00     0.102 C 
ATOM     57  C   UNL     1     -19.233   0.122  10.942  1.00  0.00     0.043 C 
BRANCH  56  58
ATOM     58  C   UNL     1     -17.964  -0.674  12.814  1.00  0.00     0.268 C 
ATOM     59  O   UNL     1     -16.994  -1.393  13.007  1.00  0.00    -0.268 OA
ATOM     60  N   UNL     1     -19.023  -0.574  13.685  1.00  0.00    -0.339 N 
ATOM     61  H   UNL     1     -19.794   0.038  13.447  1.00  0.00     0.164 HD
BRANCH  60  62
ATOM     62  C   UNL     1     -19.080  -1.335  14.932  1.00  0.00     0.168 CG0
ATOM     63  C   UNL     1     -18.601  -0.493  16.109  1.00  0.00     0.041 C 
ATOM     64  G   UNL     1     -18.230  -2.616  14.796  1.00  0.00     0.000 G0
ENDBRANCH  60  62
ENDBRANCH  56  58
ENDBRANCH  54  56
ENDBRANCH  52  54
ENDBRANCH  51  52
ENDBRANCH  50  51
ENDBRANCH  49  50
BRANCH  49  65
ATOM     65  C   UNL     1     -16.751  -0.923   7.103  1.00  0.00     0.326 C 
ATOM     66  O   UNL     1     -15.878  -1.743   6.861  1.00  0.00    -0.250 OA
BRANCH  65  67
ATOM     67  O   UNL     1     -17.937  -1.334   7.604  1.00  0.00    -0.480 OA
ATOM     68  H   UNL     1     -17.693  -1.756   8.456  1.00  0.00     0.296 HD
ENDBRANCH  65  67
ENDBRANCH  49  65
ENDBRANCH  47  49
ENDBRANCH  43  45
ENDBRANCH   1  43
BRANCH   1  69
ATOM     69  C   UNL     1     -11.610   2.899   4.221  1.00  0.00    -0.001 C 
ATOM     70  C   UNL     1     -11.119   4.005   3.636  1.00  0.00     0.001 C 
BRANCH  70  71
ATOM     71  C   UNL     1      -9.970   4.086   2.732  1.00  0.00    -0.055 C 
ATOM     72  C   UNL     1      -9.051   3.099   2.795  1.00  0.00    -0.018 C 
ATOM     73  C   UNL     1      -9.898   5.260   1.790  1.00  0.00     0.044 C 
BRANCH  72  74
ATOM     74  C   UNL     1      -7.774   2.919   1.987  1.00  0.00     0.038 C 
ATOM     75  C   UNL     1      -8.109   1.995   0.810  1.00  0.00     0.015 C 
BRANCH  74  76
ATOM     76  C   UNL     1      -6.653   2.394   2.931  1.00  0.00     0.128 C 
BRANCH  76  77
ATOM     77  O   UNL     1      -5.838   1.434   2.239  1.00  0.00    -0.381 OA
ATOM     78  C   UNL     1      -5.206   0.495   3.099  1.00  0.00     0.195 C 
ENDBRANCH  76  77
BRANCH  76  79
ATOM     79  C   UNL     1      -5.820   3.514   3.604  1.00  0.00     0.068 C 
BRANCH  79  80
ATOM     80  C   UNL     1      -5.981   3.719   5.091  1.00  0.00    -0.045 A 
ATOM     81  C   UNL     1      -6.850   2.916   5.840  1.00  0.00     0.004 A 
ATOM     82  C   UNL     1      -5.278   4.743   5.743  1.00  0.00     0.004 A 
ATOM     83  C   UNL     1      -7.004   3.122   7.213  1.00  0.00     0.000 A 
ATOM     84  C   UNL     1      -5.433   4.948   7.116  1.00  0.00     0.000 A 
ATOM     85  C   UNL     1      -6.294   4.137   7.851  1.00  0.00     0.000 A 
ENDBRANCH  79  80
ENDBRANCH  76  79
ENDBRANCH  74  76
ENDBRANCH  72  74
ENDBRANCH  70  71
ENDBRANCH   1  69
TORSDOF 17
ENDMDL
MODEL 2
REMARK VINA RESULT:    -7.646      2.278      3.677
REMARK INTER + INTRA:         -31.486
REMARK INTER:                 -23.801
REMARK INTRA:                  -7.686
REMARK UNBOUND:                -8.643
REMARK SMILES C=C1C(=O)N[C@H](C)C(=O)N[C@@H](CC(C)C)C(=O)N[C@@H](C(=O)O)[C@H](C)C(=O)N[C@@H](CCCN=C(N)N)C(=O)N[C@@H](/C=C/C(C)=C/[C@H](C)[C@H](Cc2ccccc2)OC)[C@H](C)C(=O)N[C@@H](C(=O)O)CCC(=O)N1C
REMARK SMILES IDX 39 1 38 2 37 3 36 4 28 6 27 7 25 8 26 9 23 11 24 12 19 13
REMARK SMILES IDX 18 14 16 15 17 16 11 18 10 19 8 20 9 21 12 24 13 25 14 26
REMARK SMILES IDX 15 27 20 28 21 29 22 30 29 32 30 33 31 34 32 35 33 36 34 37
REMARK SMILES IDX 35 38 57 43 58 44 59 45 60 46 61 47 62 49 66 50 67 51 68 52
REMARK SMILES IDX 69 53 70 54 71 55 2 56 1 57 3 58 4 59 5 60 6 62 7 63 63 65
REMARK SMILES IDX 64 66 65 67 40 69 41 70 42 71 44 72 43 73 45 74 46 75 47 76
REMARK SMILES IDX 55 77 56 78 48 79 49 80 50 81 54 82 51 83 53 84 52 85
REMARK H PARENT 38 5 27 10 18 17 10 22 22 31 34 39 34 40 35 41 35 42 61 48
REMARK H PARENT 5 61 65 68
REMARK Flexibility Score:  369.900
ROOT
ATOM      1  C   UNL     1     -11.859   2.431   4.490  1.00  0.00     0.117 C 
ENDROOT
BRANCH   1   2
ATOM      2  N   UNL     1     -11.717   3.434   5.546  1.00  0.00    -0.347 N 
ATOM      3  O   UNL     1     -11.853   5.304   4.220  1.00  0.00    -0.273 OA
ATOM      4  C   UNL     1     -11.818   4.796   5.336  1.00  0.00     0.243 C 
ATOM      5  H   UNL     1     -11.587   3.133   6.500  1.00  0.00     0.164 HD
BRANCH   4   6
ATOM      6  C   UNL     1     -11.716   5.635   6.635  1.00  0.00     0.171 C 
BRANCH   6   7
ATOM      7  N   UNL     1     -12.271   6.982   6.422  1.00  0.00    -0.344 N 
ATOM      8  C   UNL     1     -11.507   8.103   6.663  1.00  0.00     0.226 C 
ATOM      9  O   UNL     1     -10.356   8.041   7.080  1.00  0.00    -0.275 OA
ATOM     10  H   UNL     1     -13.240   7.075   6.143  1.00  0.00     0.164 HD
BRANCH   8  11
ATOM     11  C   UNL     1     -12.202   9.415   6.344  1.00  0.00     0.109 C 
ATOM     12  C   UNL     1     -12.878   9.970   7.598  1.00  0.00     0.021 C 
BRANCH  11  13
ATOM     13  C   UNL     1     -11.211  10.378   5.661  1.00  0.00     0.204 C 
BRANCH  13  14
ATOM     14  N   UNL     1     -10.257   9.670   4.801  1.00  0.00    -0.340 N 
ATOM     15  C   UNL     1      -8.942  10.057   4.666  1.00  0.00     0.243 C 
ATOM     16  O   UNL     1      -8.459  10.990   5.306  1.00  0.00    -0.273 OA
ATOM     17  H   UNL     1     -10.627   8.989   4.133  1.00  0.00     0.164 HD
BRANCH  15  18
ATOM     18  C   UNL     1      -8.184   9.294   3.553  1.00  0.00     0.171 C 
BRANCH  18  19
ATOM     19  N   UNL     1      -7.192  10.220   3.010  1.00  0.00    -0.343 N 
ATOM     20  C   UNL     1      -6.976  10.344   1.651  1.00  0.00     0.242 CG0
ATOM     21  O   UNL     1      -7.511   9.588   0.844  1.00  0.00    -0.273 OA
ATOM     22  H   UNL     1      -6.640  10.786   3.645  1.00  0.00     0.164 HD
ATOM     23  G   UNL     1      -5.948  11.427   1.266  1.00  0.00     0.000 G0
ENDBRANCH  18  19
BRANCH  18  24
ATOM     24  C   UNL     1      -7.523   8.030   4.116  1.00  0.00     0.038 C 
BRANCH  24  25
ATOM     25  C   UNL     1      -8.043   6.707   3.514  1.00  0.00    -0.015 C 
ATOM     26  C   UNL     1      -9.266   6.913   2.620  1.00  0.00     0.007 C 
ATOM     27  C   UNL     1      -8.388   5.730   4.641  1.00  0.00     0.007 C 
ENDBRANCH  24  25
ENDBRANCH  18  24
ENDBRANCH  15  18
ENDBRANCH  13  14
BRANCH  13  28
ATOM     28  C   UNL     1     -11.899  11.440   4.798  1.00  0.00     0.327 C 
ATOM     29  O   UNL     1     -11.372  12.116   3.928  1.00  0.00    -0.250 OA
BRANCH  28  30
ATOM     30  O   UNL     1     -13.177  11.670   5.161  1.00  0.00    -0.480 OA
ATOM     31  H   UNL     1     -13.708  11.291   4.430  1.00  0.00     0.296 HD
ENDBRANCH  28  30
ENDBRANCH  13  28
ENDBRANCH  11  13
ENDBRANCH   8  11
ENDBRANCH   6   7
BRANCH   6  32
ATOM     32  C   UNL     1     -12.458   4.910   7.763  1.00  0.00     0.037 C 
BRANCH  32  33
ATOM     33  C   UNL     1     -11.618   4.819   9.045  1.00  0.00     0.026 C 
BRANCH  33  34
ATOM     34  C   UNL     1     -10.506   3.774   8.942  1.00  0.00     0.146 C 
BRANCH  34  35
ATOM     35  N   UNL     1     -11.110   2.451   8.867  1.00  0.00    -0.254 NA
ATOM     36  C   UNL     1     -11.116   1.717   9.917  1.00  0.00     0.185 C 
ATOM     37  N   UNL     1     -11.674   0.498   9.859  1.00  0.00    -0.370 N 
ATOM     38  N   UNL     1     -10.624   1.987  11.139  1.00  0.00    -0.370 N 
ATOM     39  H   UNL     1     -12.077   0.224   8.972  1.00  0.00     0.159 HD
ATOM     40  H   UNL     1     -11.873  -0.061  10.671  1.00  0.00     0.159 HD
ATOM     41  H   UNL     1     -10.565   1.273  11.846  1.00  0.00     0.159 HD
ATOM     42  H   UNL     1     -10.161   2.864  11.323  1.00  0.00     0.159 HD
ENDBRANCH  34  35
ENDBRANCH  33  34
ENDBRANCH  32  33
ENDBRANCH   6  32
ENDBRANCH   4   6
ENDBRANCH   1   2
BRANCH   1  43
ATOM     43  C   UNL     1     -12.586   1.189   5.082  1.00  0.00     0.102 C 
ATOM     44  C   UNL     1     -11.823  -0.129   4.864  1.00  0.00     0.020 C 
BRANCH  43  45
ATOM     45  C   UNL     1     -14.049   1.141   4.632  1.00  0.00     0.225 C 
ATOM     46  O   UNL     1     -14.404   0.670   3.555  1.00  0.00    -0.275 OA
ATOM     47  N   UNL     1     -14.948   1.752   5.476  1.00  0.00    -0.342 N 
ATOM     48  H   UNL     1     -14.667   1.996   6.415  1.00  0.00     0.164 HD
BRANCH  47  49
ATOM     49  C   UNL     1     -16.386   1.753   5.191  1.00  0.00     0.192 C 
BRANCH  49  50
ATOM     50  C   UNL     1     -17.014   3.045   5.721  1.00  0.00     0.047 C 
BRANCH  50  51
ATOM     51  C   UNL     1     -16.177   3.684   6.837  1.00  0.00     0.103 C 
BRANCH  51  52
ATOM     52  C   UNL     1     -16.825   3.513   8.209  1.00  0.00     0.226 C 
ATOM     53  O   UNL     1     -17.916   4.037   8.439  1.00  0.00    -0.275 OA
BRANCH  52  54
ATOM     54  N   UNL     1     -16.148   2.683   9.123  1.00  0.00    -0.311 N 
ATOM     55  C   UNL     1     -14.731   2.347   8.932  1.00  0.00     0.153 C 
BRANCH  54  56
ATOM     56  C   UNL     1     -16.798   2.151  10.249  1.00  0.00     0.102 C 
ATOM     57  C   UNL     1     -16.729   2.663  11.489  1.00  0.00     0.043 C 
BRANCH  56  58
ATOM     58  C   UNL     1     -17.692   0.939  10.128  1.00  0.00     0.268 C 
ATOM     59  O   UNL     1     -17.587   0.117   9.228  1.00  0.00    -0.268 OA
ATOM     60  N   UNL     1     -18.587   0.823  11.164  1.00  0.00    -0.339 N 
ATOM     61  H   UNL     1     -18.618   1.553  11.866  1.00  0.00     0.164 HD
BRANCH  60  62
ATOM     62  C   UNL     1     -19.505  -0.310  11.277  1.00  0.00     0.168 CG0
ATOM     63  C   UNL     1     -20.813  -0.028  10.549  1.00  0.00     0.041 C 
ATOM     64  G   UNL     1     -19.764  -0.619  12.766  1.00  0.00     0.000 G0
ENDBRANCH  60  62
ENDBRANCH  56  58
ENDBRANCH  54  56
ENDBRANCH  52  54
ENDBRANCH  51  52
ENDBRANCH  50  51
ENDBRANCH  49  50
BRANCH  49  65
ATOM     65  C   UNL     1     -17.091   0.546   5.829  1.00  0.00     0.326 C 
ATOM     66  O   UNL     1     -16.733  -0.619   5.733  1.00  0.00    -0.250 OA
BRANCH  65  67
ATOM     67  O   UNL     1     -18.229   0.844   6.495  1.00  0.00    -0.480 OA
ATOM     68  H   UNL     1     -18.744   0.010   6.457  1.00  0.00     0.296 HD
ENDBRANCH  65  67
ENDBRANCH  49  65
ENDBRANCH  47  49
ENDBRANCH  43  45
ENDBRANCH   1  43
BRANCH   1  69
ATOM     69  C   UNL     1     -10.477   2.253   3.886  1.00  0.00    -0.001 C 
ATOM     70  C   UNL     1     -10.007   2.796   2.750  1.00  0.00     0.001 C 
BRANCH  70  71
ATOM     71  C   UNL     1      -8.665   2.635   2.188  1.00  0.00    -0.055 C 
ATOM     72  C   UNL     1      -7.616   2.715   3.034  1.00  0.00    -0.018 C 
ATOM     73  C   UNL     1      -8.549   2.383   0.707  1.00  0.00     0.044 C 
BRANCH  72  74
ATOM     74  C   UNL     1      -6.128   2.586   2.739  1.00  0.00     0.038 C 
ATOM     75  C   UNL     1      -5.729   1.139   3.054  1.00  0.00     0.015 C 
BRANCH  74  76
ATOM     76  C   UNL     1      -5.360   3.668   3.554  1.00  0.00     0.128 C 
BRANCH  76  77
ATOM     77  O   UNL     1      -5.281   3.277   4.935  1.00  0.00    -0.381 OA
ATOM     78  C   UNL     1      -5.106   4.369   5.828  1.00  0.00     0.195 C 
ENDBRANCH  76  77
BRANCH  76  79
ATOM     79  C   UNL     1      -3.981   4.044   2.957  1.00  0.00     0.068 C 
BRANCH  79  80
ATOM     80  C   UNL     1      -3.822   5.421   2.357  1.00  0.00    -0.045 A 
ATOM     81  C   UNL     1      -3.051   5.621   1.205  1.00  0.00     0.004 A 
ATOM     82  C   UNL     1      -4.426   6.531   2.966  1.00  0.00     0.004 A 
ATOM     83  C   UNL     1      -2.898   6.900   0.664  1.00  0.00     0.000 A 
ATOM     84  C   UNL     1      -4.272   7.809   2.425  1.00  0.00     0.000 A 
ATOM     85  C   UNL     1      -3.509   7.993   1.274  1.00  0.00     0.000 A 
ENDBRANCH  79  80
ENDBRANCH  76  79
ENDBRANCH  74  76
ENDBRANCH  72  74
ENDBRANCH  70  71
ENDBRANCH   1  69
TORSDOF 17
ENDMDL
MODEL 3
REMARK VINA RESULT:    -7.304      2.840     11.331
REMARK INTER + INTRA:         -30.463
REMARK INTER:                 -23.307
REMARK INTRA:                  -7.156
REMARK UNBOUND:                -8.643
REMARK SMILES C=C1C(=O)N[C@H](C)C(=O)N[C@@H](CC(C)C)C(=O)N[C@@H](C(=O)O)[C@H](C)C(=O)N[C@@H](CCCN=C(N)N)C(=O)N[C@@H](/C=C/C(C)=C/[C@H](C)[C@H](Cc2ccccc2)OC)[C@H](C)C(=O)N[C@@H](C(=O)O)CCC(=O)N1C
REMARK SMILES IDX 39 1 38 2 37 3 36 4 28 6 27 7 25 8 26 9 23 11 24 12 19 13
REMARK SMILES IDX 18 14 16 15 17 16 11 18 10 19 8 20 9 21 12 24 13 25 14 26
REMARK SMILES IDX 15 27 20 28 21 29 22 30 29 32 30 33 31 34 32 35 33 36 34 37
REMARK SMILES IDX 35 38 57 43 58 44 59 45 60 46 61 47 62 49 66 50 67 51 68 52
REMARK SMILES IDX 69 53 70 54 71 55 2 56 1 57 3 58 4 59 5 60 6 62 7 63 63 65
REMARK SMILES IDX 64 66 65 67 40 69 41 70 42 71 44 72 43 73 45 74 46 75 47 76
REMARK SMILES IDX 55 77 56 78 48 79 49 80 50 81 54 82 51 83 53 84 52 85
REMARK H PARENT 38 5 27 10 18 17 10 22 22 31 34 39 34 40 35 41 35 42 61 48
REMARK H PARENT 5 61 65 68
REMARK Flexibility Score:  369.900
ROOT
ATOM      1  C   UNL     1     -12.577   4.315   7.396  1.00  0.00     0.117 C 
ENDROOT
BRANCH   1   2
ATOM      2  N   UNL     1     -13.979   4.723   7.503  1.00  0.00    -0.347 N 
ATOM      3  O   UNL     1     -14.908   2.626   7.605  1.00  0.00    -0.273 OA
ATOM      4  C   UNL     1     -15.028   3.844   7.691  1.00  0.00     0.243 C 
ATOM      5  H   UNL     1     -14.210   5.704   7.490  1.00  0.00     0.164 HD
BRANCH   4   6
ATOM      6  C   UNL     1     -16.402   4.540   7.859  1.00  0.00     0.171 C 
BRANCH   6   7
ATOM      7  N   UNL     1     -17.227   3.821   8.843  1.00  0.00    -0.344 N 
ATOM      8  C   UNL     1     -18.163   2.896   8.433  1.00  0.00     0.226 C 
ATOM      9  O   UNL     1     -18.371   2.646   7.251  1.00  0.00    -0.275 OA
ATOM     10  H   UNL     1     -17.131   4.049   9.824  1.00  0.00     0.164 HD
BRANCH   8  11
ATOM     11  C   UNL     1     -18.894   2.200   9.568  1.00  0.00     0.109 C 
ATOM     12  C   UNL     1     -20.274   1.738   9.100  1.00  0.00     0.021 C 
BRANCH  11  13
ATOM     13  C   UNL     1     -18.003   1.088  10.157  1.00  0.00     0.204 C 
BRANCH  13  14
ATOM     14  N   UNL     1     -18.727   0.255  11.122  1.00  0.00    -0.340 N 
ATOM     15  C   UNL     1     -18.091  -0.496  12.087  1.00  0.00     0.243 C 
ATOM     16  O   UNL     1     -16.872  -0.473  12.245  1.00  0.00    -0.273 OA
ATOM     17  H   UNL     1     -19.719   0.074  10.951  1.00  0.00     0.164 HD
BRANCH  15  18
ATOM     18  C   UNL     1     -19.040  -1.451  12.852  1.00  0.00     0.171 C 
BRANCH  18  19
ATOM     19  N   UNL     1     -19.729  -0.642  13.855  1.00  0.00    -0.343 N 
ATOM     20  C   UNL     1     -19.235  -0.496  15.138  1.00  0.00     0.242 CG0
ATOM     21  O   UNL     1     -18.269  -1.145  15.533  1.00  0.00    -0.273 OA
ATOM     22  H   UNL     1     -20.596  -0.178  13.610  1.00  0.00     0.164 HD
ATOM     23  G   UNL     1     -20.055   0.458  16.031  1.00  0.00     0.000 G0
ENDBRANCH  18  19
BRANCH  18  24
ATOM     24  C   UNL     1     -20.031  -2.116  11.889  1.00  0.00     0.038 C 
BRANCH  24  25
ATOM     25  C   UNL     1     -20.297  -3.610  12.167  1.00  0.00    -0.015 C 
ATOM     26  C   UNL     1     -19.357  -4.185  13.227  1.00  0.00     0.007 C 
ATOM     27  C   UNL     1     -20.159  -4.408  10.868  1.00  0.00     0.007 C 
ENDBRANCH  24  25
ENDBRANCH  18  24
ENDBRANCH  15  18
ENDBRANCH  13  14
BRANCH  13  28
ATOM     28  C   UNL     1     -17.425   0.151   9.093  1.00  0.00     0.327 C 
ATOM     29  O   UNL     1     -18.061  -0.591   8.360  1.00  0.00    -0.250 OA
BRANCH  28  30
ATOM     30  O   UNL     1     -16.077   0.115   9.096  1.00  0.00    -0.480 OA
ATOM     31  H   UNL     1     -15.848  -0.428   8.313  1.00  0.00     0.296 HD
ENDBRANCH  28  30
ENDBRANCH  13  28
ENDBRANCH  11  13
ENDBRANCH   8  11
ENDBRANCH   6   7
BRANCH   6  32
ATOM     32  C   UNL     1     -16.180   5.994   8.290  1.00  0.00     0.037 C 
BRANCH  32  33
ATOM     33  C   UNL     1     -17.494   6.786   8.358  1.00  0.00     0.026 C 
BRANCH  33  34
ATOM     34  C   UNL     1     -17.287   8.283   8.126  1.00  0.00     0.146 C 
BRANCH  34  35
ATOM     35  N   UNL     1     -18.299   8.757   7.192  1.00  0.00    -0.254 NA
ATOM     36  C   UNL     1     -18.057   9.812   6.506  1.00  0.00     0.185 C 
ATOM     37  N   UNL     1     -18.980  10.255   5.639  1.00  0.00    -0.370 N 
ATOM     38  N   UNL     1     -16.961  10.592   6.515  1.00  0.00    -0.370 N 
ATOM     39  H   UNL     1     -19.832   9.714   5.567  1.00  0.00     0.159 HD
ATOM     40  H   UNL     1     -18.800  10.963   4.948  1.00  0.00     0.159 HD
ATOM     41  H   UNL     1     -16.946  11.475   6.032  1.00  0.00     0.159 HD
ATOM     42  H   UNL     1     -16.191  10.387   7.133  1.00  0.00     0.159 HD
ENDBRANCH  34  35
ENDBRANCH  33  34
ENDBRANCH  32  33
ENDBRANCH   6  32
ENDBRANCH   4   6
ENDBRANCH   1   2
BRANCH   1  43
ATOM     43  C   UNL     1     -11.999   4.148   8.831  1.00  0.00     0.102 C 
ATOM     44  C   UNL     1     -12.249   5.366   9.736  1.00  0.00     0.020 C 
BRANCH  43  45
ATOM     45  C   UNL     1     -10.536   3.697   8.785  1.00  0.00     0.225 C 
ATOM     46  O   UNL     1      -9.602   4.414   9.133  1.00  0.00    -0.275 OA
ATOM     47  N   UNL     1     -10.316   2.454   8.237  1.00  0.00    -0.342 N 
ATOM     48  H   UNL     1     -11.093   1.823   8.099  1.00  0.00     0.164 HD
BRANCH  47  49
ATOM     49  C   UNL     1      -8.971   1.877   8.160  1.00  0.00     0.192 C 
BRANCH  49  50
ATOM     50  C   UNL     1      -8.811   1.115   6.842  1.00  0.00     0.047 C 
BRANCH  50  51
ATOM     51  C   UNL     1      -7.671   1.675   5.981  1.00  0.00     0.103 C 
BRANCH  51  52
ATOM     52  C   UNL     1      -7.507   3.183   6.156  1.00  0.00     0.226 C 
ATOM     53  O   UNL     1      -8.452   3.933   5.903  1.00  0.00    -0.275 OA
BRANCH  52  54
ATOM     54  N   UNL     1      -6.277   3.623   6.680  1.00  0.00    -0.311 N 
ATOM     55  C   UNL     1      -5.780   3.120   7.967  1.00  0.00     0.153 C 
BRANCH  54  56
ATOM     56  C   UNL     1      -5.479   4.552   5.992  1.00  0.00     0.102 C 
ATOM     57  C   UNL     1      -5.103   5.748   6.474  1.00  0.00     0.043 C 
BRANCH  56  58
ATOM     58  C   UNL     1      -4.928   4.236   4.622  1.00  0.00     0.268 C 
ATOM     59  O   UNL     1      -4.614   3.107   4.270  1.00  0.00    -0.268 OA
ATOM     60  N   UNL     1      -4.877   5.332   3.794  1.00  0.00    -0.339 N 
ATOM     61  H   UNL     1      -5.145   6.236   4.165  1.00  0.00     0.164 HD
BRANCH  60  62
ATOM     62  C   UNL     1      -4.435   5.238   2.403  1.00  0.00     0.168 CG0
ATOM     63  C   UNL     1      -3.232   6.138   2.150  1.00  0.00     0.041 C 
ATOM     64  G   UNL     1      -5.601   5.608   1.463  1.00  0.00     0.000 G0
ENDBRANCH  60  62
ENDBRANCH  56  58
ENDBRANCH  54  56
ENDBRANCH  52  54
ENDBRANCH  51  52
ENDBRANCH  50  51
ENDBRANCH  49  50
BRANCH  49  65
ATOM     65  C   UNL     1      -8.695   0.926   9.335  1.00  0.00     0.326 C 
ATOM     66  O   UNL     1      -9.234   0.975  10.431  1.00  0.00    -0.250 OA
BRANCH  65  67
ATOM     67  O   UNL     1      -7.727   0.011   9.105  1.00  0.00    -0.480 OA
ATOM     68  H   UNL     1      -7.146   0.085   9.892  1.00  0.00     0.296 HD
ENDBRANCH  65  67
ENDBRANCH  49  65
ENDBRANCH  47  49
ENDBRANCH  43  45
ENDBRANCH   1  43
BRANCH   1  69
ATOM     69  C   UNL     1     -11.919   5.302   6.450  1.00  0.00    -0.001 C 
ATOM     70  C   UNL     1     -11.645   5.126   5.146  1.00  0.00     0.001 C 
BRANCH  70  71
ATOM     71  C   UNL     1     -11.029   6.095   4.237  1.00  0.00    -0.055 C 
ATOM     72  C   UNL     1     -10.089   6.921   4.744  1.00  0.00    -0.018 C 
ATOM     73  C   UNL     1     -11.481   6.097   2.800  1.00  0.00     0.044 C 
BRANCH  72  74
ATOM     74  C   UNL     1      -9.287   8.010   4.047  1.00  0.00     0.038 C 
ATOM     75  C   UNL     1      -7.885   7.445   3.788  1.00  0.00     0.015 C 
BRANCH  74  76
ATOM     76  C   UNL     1      -9.320   9.296   4.925  1.00  0.00     0.128 C 
BRANCH  76  77
ATOM     77  O   UNL     1      -8.293  10.207   4.500  1.00  0.00    -0.381 OA
ATOM     78  C   UNL     1      -8.755  11.537   4.302  1.00  0.00     0.195 C 
ENDBRANCH  76  77
BRANCH  76  79
ATOM     79  C   UNL     1     -10.716   9.964   5.010  1.00  0.00     0.068 C 
BRANCH  79  80
ATOM     80  C   UNL     1     -11.711   9.399   5.995  1.00  0.00    -0.045 A 
ATOM     81  C   UNL     1     -13.004   9.044   5.592  1.00  0.00     0.004 A 
ATOM     82  C   UNL     1     -11.360   9.248   7.346  1.00  0.00     0.004 A 
ATOM     83  C   UNL     1     -13.923   8.536   6.512  1.00  0.00     0.000 A 
ATOM     84  C   UNL     1     -12.280   8.740   8.266  1.00  0.00     0.000 A 
ATOM     85  C   UNL     1     -13.560   8.383   7.849  1.00  0.00     0.000 A 
ENDBRANCH  79  80
ENDBRANCH  76  79
ENDBRANCH  74  76
ENDBRANCH  72  74
ENDBRANCH  70  71
ENDBRANCH   1  69
TORSDOF 17
ENDMDL
MODEL 4
REMARK VINA RESULT:    -7.301      1.796      2.719
REMARK INTER + INTRA:         -30.456
REMARK INTER:                 -23.641
REMARK INTRA:                  -6.815
REMARK UNBOUND:                -8.643
REMARK SMILES C=C1C(=O)N[C@H](C)C(=O)N[C@@H](CC(C)C)C(=O)N[C@@H](C(=O)O)[C@H](C)C(=O)N[C@@H](CCCN=C(N)N)C(=O)N[C@@H](/C=C/C(C)=C/[C@H](C)[C@H](Cc2ccccc2)OC)[C@H](C)C(=O)N[C@@H](C(=O)O)CCC(=O)N1C
REMARK SMILES IDX 39 1 38 2 37 3 36 4 28 6 27 7 25 8 26 9 23 11 24 12 19 13
REMARK SMILES IDX 18 14 16 15 17 16 11 18 10 19 8 20 9 21 12 24 13 25 14 26
REMARK SMILES IDX 15 27 20 28 21 29 22 30 29 32 30 33 31 34 32 35 33 36 34 37
REMARK SMILES IDX 35 38 57 43 58 44 59 45 60 46 61 47 62 49 66 50 67 51 68 52
REMARK SMILES IDX 69 53 70 54 71 55 2 56 1 57 3 58 4 59 5 60 6 62 7 63 63 65
REMARK SMILES IDX 64 66 65 67 40 69 41 70 42 71 44 72 43 73 45 74 46 75 47 76
REMARK SMILES IDX 55 77 56 78 48 79 49 80 50 81 54 82 51 83 53 84 52 85
REMARK H PARENT 38 5 27 10 18 17 10 22 22 31 34 39 34 40 35 41 35 42 61 48
REMARK H PARENT 5 61 65 68
REMARK Flexibility Score:  369.900
ROOT
ATOM      1  C   UNL     1     -11.842   2.736   4.459  1.00  0.00     0.117 C 
ENDROOT
BRANCH   1   2
ATOM      2  N   UNL     1     -11.605   3.604   5.613  1.00  0.00    -0.347 N 
ATOM      3  O   UNL     1     -11.665   5.616   4.511  1.00  0.00    -0.273 OA
ATOM      4  C   UNL     1     -11.627   4.984   5.561  1.00  0.00     0.243 C 
ATOM      5  H   UNL     1     -11.465   3.189   6.522  1.00  0.00     0.164 HD
BRANCH   4   6
ATOM      6  C   UNL     1     -11.433   5.663   6.940  1.00  0.00     0.171 C 
BRANCH   6   7
ATOM      7  N   UNL     1     -12.136   6.956   6.981  1.00  0.00    -0.344 N 
ATOM      8  C   UNL     1     -11.430   8.139   6.987  1.00  0.00     0.226 C 
ATOM      9  O   UNL     1     -10.205   8.178   6.982  1.00  0.00    -0.275 OA
ATOM     10  H   UNL     1     -13.145   6.963   7.054  1.00  0.00     0.164 HD
BRANCH   8  11
ATOM     11  C   UNL     1     -12.298   9.385   6.975  1.00  0.00     0.109 C 
ATOM     12  C   UNL     1     -12.594   9.834   8.406  1.00  0.00     0.021 C 
BRANCH  11  13
ATOM     13  C   UNL     1     -11.654  10.461   6.078  1.00  0.00     0.204 C 
BRANCH  13  14
ATOM     14  N   UNL     1     -10.632   9.899   5.190  1.00  0.00    -0.340 N 
ATOM     15  C   UNL     1      -9.522  10.608   4.784  1.00  0.00     0.243 C 
ATOM     16  O   UNL     1      -9.279  11.743   5.188  1.00  0.00    -0.273 OA
ATOM     17  H   UNL     1     -10.848   9.026   4.702  1.00  0.00     0.164 HD
BRANCH  15  18
ATOM     18  C   UNL     1      -8.696   9.889   3.688  1.00  0.00     0.171 C 
BRANCH  18  19
ATOM     19  N   UNL     1      -7.659  10.827   3.264  1.00  0.00    -0.343 N 
ATOM     20  C   UNL     1      -7.100  10.774   2.001  1.00  0.00     0.242 CG0
ATOM     21  O   UNL     1      -7.353   9.856   1.224  1.00  0.00    -0.273 OA
ATOM     22  H   UNL     1      -7.332  11.534   3.913  1.00  0.00     0.164 HD
ATOM     23  G   UNL     1      -6.079  11.892   1.709  1.00  0.00     0.000 G0
ENDBRANCH  18  19
BRANCH  18  24
ATOM     24  C   UNL     1      -8.091   8.589   4.231  1.00  0.00     0.038 C 
BRANCH  24  25
ATOM     25  C   UNL     1      -8.912   7.319   3.924  1.00  0.00    -0.015 C 
ATOM     26  C   UNL     1      -8.190   6.039   4.348  1.00  0.00     0.007 C 
ATOM     27  C   UNL     1      -9.229   7.260   2.428  1.00  0.00     0.007 C 
ENDBRANCH  24  25
ENDBRANCH  18  24
ENDBRANCH  15  18
ENDBRANCH  13  14
BRANCH  13  28
ATOM     28  C   UNL     1     -12.667  11.197   5.196  1.00  0.00     0.327 C 
ATOM     29  O   UNL     1     -13.819  10.855   4.978  1.00  0.00    -0.250 OA
BRANCH  28  30
ATOM     30  O   UNL     1     -12.135  12.253   4.548  1.00  0.00    -0.480 OA
ATOM     31  H   UNL     1     -11.560  12.682   5.216  1.00  0.00     0.296 HD
ENDBRANCH  28  30
ENDBRANCH  13  28
ENDBRANCH  11  13
ENDBRANCH   8  11
ENDBRANCH   6   7
BRANCH   6  32
ATOM     32  C   UNL     1     -11.946   4.726   8.040  1.00  0.00     0.037 C 
BRANCH  32  33
ATOM     33  C   UNL     1     -12.771   5.472   9.098  1.00  0.00     0.026 C 
BRANCH  33  34
ATOM     34  C   UNL     1     -14.270   5.197   8.972  1.00  0.00     0.146 C 
BRANCH  34  35
ATOM     35  N   UNL     1     -14.905   6.341   8.332  1.00  0.00    -0.254 NA
ATOM     36  C   UNL     1     -15.484   7.214   9.069  1.00  0.00     0.185 C 
ATOM     37  N   UNL     1     -16.068   8.275   8.490  1.00  0.00    -0.370 N 
ATOM     38  N   UNL     1     -15.607   7.242  10.408  1.00  0.00    -0.370 N 
ATOM     39  H   UNL     1     -16.009   8.331   7.481  1.00  0.00     0.159 HD
ATOM     40  H   UNL     1     -16.386   9.082   8.999  1.00  0.00     0.159 HD
ATOM     41  H   UNL     1     -16.207   7.911  10.862  1.00  0.00     0.159 HD
ATOM     42  H   UNL     1     -15.229   6.498  10.973  1.00  0.00     0.159 HD
ENDBRANCH  34  35
ENDBRANCH  33  34
ENDBRANCH  32  33
ENDBRANCH   6  32
ENDBRANCH   4   6
ENDBRANCH   1   2
BRANCH   1  43
ATOM     43  C   UNL     1     -12.725   1.538   4.912  1.00  0.00     0.102 C 
ATOM     44  C   UNL     1     -12.889   0.456   3.832  1.00  0.00     0.020 C 
BRANCH  43  45
ATOM     45  C   UNL     1     -14.048   2.025   5.510  1.00  0.00     0.225 C 
ATOM     46  O   UNL     1     -14.374   3.208   5.543  1.00  0.00    -0.275 OA
ATOM     47  N   UNL     1     -14.822   1.054   6.104  1.00  0.00    -0.342 N 
ATOM     48  H   UNL     1     -14.617   0.079   5.937  1.00  0.00     0.164 HD
BRANCH  47  49
ATOM     49  C   UNL     1     -16.131   1.368   6.686  1.00  0.00     0.192 C 
BRANCH  49  50
ATOM     50  C   UNL     1     -16.290   0.634   8.020  1.00  0.00     0.047 C 
BRANCH  50  51
ATOM     51  C   UNL     1     -15.234   1.062   9.049  1.00  0.00     0.103 C 
BRANCH  51  52
ATOM     52  C   UNL     1     -15.553   0.540  10.448  1.00  0.00     0.226 C 
ATOM     53  O   UNL     1     -14.861  -0.355  10.938  1.00  0.00    -0.275 OA
BRANCH  52  54
ATOM     54  N   UNL     1     -16.598   1.185  11.135  1.00  0.00    -0.311 N 
ATOM     55  C   UNL     1     -16.468   2.582  11.570  1.00  0.00     0.153 C 
BRANCH  54  56
ATOM     56  C   UNL     1     -17.803   0.523  11.423  1.00  0.00     0.102 C 
ATOM     57  C   UNL     1     -18.864   0.466  10.602  1.00  0.00     0.043 C 
BRANCH  56  58
ATOM     58  C   UNL     1     -17.978  -0.241  12.714  1.00  0.00     0.268 C 
ATOM     59  O   UNL     1     -17.041  -0.574  13.428  1.00  0.00    -0.268 OA
ATOM     60  N   UNL     1     -19.295  -0.465  13.036  1.00  0.00    -0.339 N 
ATOM     61  H   UNL     1     -20.013  -0.166  12.386  1.00  0.00     0.164 HD
BRANCH  60  62
ATOM     62  C   UNL     1     -19.692  -1.132  14.275  1.00  0.00     0.168 CG0
ATOM     63  C   UNL     1     -21.113  -1.672  14.175  1.00  0.00     0.041 C 
ATOM     64  G   UNL     1     -19.564  -0.148  15.456  1.00  0.00     0.000 G0
ENDBRANCH  60  62
ENDBRANCH  56  58
ENDBRANCH  54  56
ENDBRANCH  52  54
ENDBRANCH  51  52
ENDBRANCH  50  51
ENDBRANCH  49  50
BRANCH  49  65
ATOM     65  C   UNL     1     -17.279   0.970   5.746  1.00  0.00     0.326 C 
ATOM     66  O   UNL     1     -17.150   0.492   4.628  1.00  0.00    -0.250 OA
BRANCH  65  67
ATOM     67  O   UNL     1     -18.515   1.242   6.219  1.00  0.00    -0.480 OA
ATOM     68  H   UNL     1     -19.007   1.543   5.425  1.00  0.00     0.296 HD
ENDBRANCH  65  67
ENDBRANCH  49  65
ENDBRANCH  47  49
ENDBRANCH  43  45
ENDBRANCH   1  43
BRANCH   1  69
ATOM     69  C   UNL     1     -10.478   2.455   3.854  1.00  0.00    -0.001 C 
ATOM     70  C   UNL     1      -9.934   3.028   2.765  1.00  0.00     0.001 C 
BRANCH  70  71
ATOM     71  C   UNL     1      -8.608   2.764   2.203  1.00  0.00    -0.055 C 
ATOM     72  C   UNL     1      -7.543   2.880   3.024  1.00  0.00    -0.018 C 
ATOM     73  C   UNL     1      -8.527   2.373   0.750  1.00  0.00     0.044 C 
BRANCH  72  74
ATOM     74  C   UNL     1      -6.067   2.667   2.723  1.00  0.00     0.038 C 
ATOM     75  C   UNL     1      -5.739   1.210   3.072  1.00  0.00     0.015 C 
BRANCH  74  76
ATOM     76  C   UNL     1      -5.238   3.728   3.505  1.00  0.00     0.128 C 
BRANCH  76  77
ATOM     77  O   UNL     1      -4.909   3.228   4.812  1.00  0.00    -0.381 OA
ATOM     78  C   UNL     1      -5.109   4.175   5.853  1.00  0.00     0.195 C 
ENDBRANCH  76  77
BRANCH  76  79
ATOM     79  C   UNL     1      -3.999   4.252   2.735  1.00  0.00     0.068 C 
BRANCH  79  80
ATOM     80  C   UNL     1      -3.967   5.714   2.359  1.00  0.00    -0.045 A 
ATOM     81  C   UNL     1      -4.689   6.664   3.093  1.00  0.00     0.004 A 
ATOM     82  C   UNL     1      -3.230   6.141   1.245  1.00  0.00     0.004 A 
ATOM     83  C   UNL     1      -4.665   8.012   2.731  1.00  0.00     0.000 A 
ATOM     84  C   UNL     1      -3.207   7.490   0.883  1.00  0.00     0.000 A 
ATOM     85  C   UNL     1      -3.923   8.425   1.626  1.00  0.00     0.000 A 
ENDBRANCH  79  80
ENDBRANCH  76  79
ENDBRANCH  74  76
ENDBRANCH  72  74
ENDBRANCH  70  71
ENDBRANCH   1  69
TORSDOF 17
ENDMDL
MODEL 5
REMARK VINA RESULT:    -7.276      3.001     11.652
REMARK INTER + INTRA:         -30.382
REMARK INTER:                 -22.177
REMARK INTRA:                  -8.204
REMARK UNBOUND:                -8.643
REMARK SMILES C=C1C(=O)N[C@H](C)C(=O)N[C@@H](CC(C)C)C(=O)N[C@@H](C(=O)O)[C@H](C)C(=O)N[C@@H](CCCN=C(N)N)C(=O)N[C@@H](/C=C/C(C)=C/[C@H](C)[C@H](Cc2ccccc2)OC)[C@H](C)C(=O)N[C@@H](C(=O)O)CCC(=O)N1C
REMARK SMILES IDX 39 1 38 2 37 3 36 4 28 6 27 7 25 8 26 9 23 11 24 12 19 13
REMARK SMILES IDX 18 14 16 15 17 16 11 18 10 19 8 20 9 21 12 24 13 25 14 26
REMARK SMILES IDX 15 27 20 28 21 29 22 30 29 32 30 33 31 34 32 35 33 36 34 37
REMARK SMILES IDX 35 38 57 43 58 44 59 45 60 46 61 47 62 49 66 50 67 51 68 52
REMARK SMILES IDX 69 53 70 54 71 55 2 56 1 57 3 58 4 59 5 60 6 62 7 63 63 65
REMARK SMILES IDX 64 66 65 67 40 69 41 70 42 71 44 72 43 73 45 74 46 75 47 76
REMARK SMILES IDX 55 77 56 78 48 79 49 80 50 81 54 82 51 83 53 84 52 85
REMARK H PARENT 38 5 27 10 18 17 10 22 22 31 34 39 34 40 35 41 35 42 61 48
REMARK H PARENT 5 61 65 68
REMARK Flexibility Score:  369.900
ROOT
ATOM      1  C   UNL     1      -9.996   4.468   7.267  1.00  0.00     0.117 C 
ENDROOT
BRANCH   1   2
ATOM      2  N   UNL     1     -11.136   3.613   7.598  1.00  0.00    -0.347 N 
ATOM      3  O   UNL     1     -10.943   2.141   5.848  1.00  0.00    -0.273 OA
ATOM      4  C   UNL     1     -11.465   2.461   6.911  1.00  0.00     0.243 C 
ATOM      5  H   UNL     1     -11.702   3.834   8.404  1.00  0.00     0.164 HD
BRANCH   4   6
ATOM      6  C   UNL     1     -12.666   1.693   7.519  1.00  0.00     0.171 C 
BRANCH   6   7
ATOM      7  N   UNL     1     -13.704   1.472   6.499  1.00  0.00    -0.344 N 
ATOM      8  C   UNL     1     -14.668   2.427   6.258  1.00  0.00     0.226 C 
ATOM      9  O   UNL     1     -14.724   3.480   6.883  1.00  0.00    -0.275 OA
ATOM     10  H   UNL     1     -13.730   0.586   6.010  1.00  0.00     0.164 HD
BRANCH   8  11
ATOM     11  C   UNL     1     -15.633   2.074   5.140  1.00  0.00     0.109 C 
ATOM     12  C   UNL     1     -14.890   1.361   4.010  1.00  0.00     0.021 C 
BRANCH  11  13
ATOM     13  C   UNL     1     -16.836   1.300   5.715  1.00  0.00     0.204 C 
BRANCH  13  14
ATOM     14  N   UNL     1     -17.290   1.856   6.993  1.00  0.00    -0.340 N 
ATOM     15  C   UNL     1     -17.800   1.078   8.009  1.00  0.00     0.243 C 
ATOM     16  O   UNL     1     -17.853  -0.149   7.939  1.00  0.00    -0.273 OA
ATOM     17  H   UNL     1     -17.415   2.870   7.058  1.00  0.00     0.164 HD
BRANCH  15  18
ATOM     18  C   UNL     1     -18.406   1.899   9.174  1.00  0.00     0.171 C 
BRANCH  18  19
ATOM     19  N   UNL     1     -18.825   0.937  10.191  1.00  0.00    -0.343 N 
ATOM     20  C   UNL     1     -20.108   0.426  10.227  1.00  0.00     0.242 CG0
ATOM     21  O   UNL     1     -20.992   0.856   9.490  1.00  0.00    -0.273 OA
ATOM     22  H   UNL     1     -18.160   0.638  10.896  1.00  0.00     0.164 HD
ATOM     23  G   UNL     1     -20.340  -0.634  11.323  1.00  0.00     0.000 G0
ENDBRANCH  18  19
BRANCH  18  24
ATOM     24  C   UNL     1     -17.377   2.892   9.728  1.00  0.00     0.038 C 
BRANCH  24  25
ATOM     25  C   UNL     1     -16.413   2.302  10.778  1.00  0.00    -0.015 C 
ATOM     26  C   UNL     1     -16.484   3.036  12.117  1.00  0.00     0.007 C 
ATOM     27  C   UNL     1     -14.979   2.346  10.242  1.00  0.00     0.007 C 
ENDBRANCH  24  25
ENDBRANCH  18  24
ENDBRANCH  15  18
ENDBRANCH  13  14
BRANCH  13  28
ATOM     28  C   UNL     1     -18.044   1.277   4.774  1.00  0.00     0.327 C 
ATOM     29  O   UNL     1     -18.230   0.494   3.855  1.00  0.00    -0.250 OA
BRANCH  28  30
ATOM     30  O   UNL     1     -18.886   2.312   4.970  1.00  0.00    -0.480 OA
ATOM     31  H   UNL     1     -19.764   1.891   5.082  1.00  0.00     0.296 HD
ENDBRANCH  28  30
ENDBRANCH  13  28
ENDBRANCH  11  13
ENDBRANCH   8  11
ENDBRANCH   6   7
BRANCH   6  32
ATOM     32  C   UNL     1     -12.173   0.362   8.096  1.00  0.00     0.037 C 
BRANCH  32  33
ATOM     33  C   UNL     1     -12.828  -0.845   7.411  1.00  0.00     0.026 C 
BRANCH  33  34
ATOM     34  C   UNL     1     -11.847  -1.624   6.534  1.00  0.00     0.146 C 
BRANCH  34  35
ATOM     35  N   UNL     1     -11.943  -1.129   5.167  1.00  0.00    -0.254 NA
ATOM     36  C   UNL     1     -11.763  -1.951   4.202  1.00  0.00     0.185 C 
ATOM     37  N   UNL     1     -11.854  -1.506   2.939  1.00  0.00    -0.370 N 
ATOM     38  N   UNL     1     -11.482  -3.265   4.253  1.00  0.00    -0.370 N 
ATOM     39  H   UNL     1     -12.075  -0.526   2.817  1.00  0.00     0.159 HD
ATOM     40  H   UNL     1     -11.899  -2.113   2.138  1.00  0.00     0.159 HD
ATOM     41  H   UNL     1     -11.224  -3.775   3.423  1.00  0.00     0.159 HD
ATOM     42  H   UNL     1     -11.368  -3.731   5.139  1.00  0.00     0.159 HD
ENDBRANCH  34  35
ENDBRANCH  33  34
ENDBRANCH  32  33
ENDBRANCH   6  32
ENDBRANCH   4   6
ENDBRANCH   1   2
BRANCH   1  43
ATOM     43  C   UNL     1      -8.875   4.228   8.320  1.00  0.00     0.102 C 
ATOM     44  C   UNL     1      -8.084   5.500   8.671  1.00  0.00     0.020 C 
BRANCH  43  45
ATOM     45  C   UNL     1      -7.995   3.038   7.926  1.00  0.00     0.225 C 
ATOM     46  O   UNL     1      -7.268   2.449   8.721  1.00  0.00    -0.275 OA
ATOM     47  N   UNL     1      -7.995   2.719   6.587  1.00  0.00    -0.342 N 
ATOM     48  H   UNL     1      -8.704   3.107   5.980  1.00  0.00     0.164 HD
BRANCH  47  49
ATOM     49  C   UNL     1      -7.228   1.581   6.071  1.00  0.00     0.192 C 
BRANCH  49  50
ATOM     50  C   UNL     1      -6.990   1.761   4.569  1.00  0.00     0.047 C 
BRANCH  50  51
ATOM     51  C   UNL     1      -7.042   3.234   4.144  1.00  0.00     0.103 C 
BRANCH  51  52
ATOM     52  C   UNL     1      -5.675   3.908   4.241  1.00  0.00     0.226 C 
ATOM     53  O   UNL     1      -4.681   3.341   3.782  1.00  0.00    -0.275 OA
BRANCH  52  54
ATOM     54  N   UNL     1      -5.651   5.201   4.795  1.00  0.00    -0.311 N 
ATOM     55  C   UNL     1      -5.261   5.416   6.195  1.00  0.00     0.153 C 
BRANCH  54  56
ATOM     56  C   UNL     1      -5.993   6.331   4.034  1.00  0.00     0.102 C 
ATOM     57  C   UNL     1      -7.208   6.904   4.011  1.00  0.00     0.043 C 
BRANCH  56  58
ATOM     58  C   UNL     1      -4.959   7.037   3.188  1.00  0.00     0.268 C 
ATOM     59  O   UNL     1      -4.069   6.448   2.590  1.00  0.00    -0.268 OA
ATOM     60  N   UNL     1      -5.163   8.394   3.106  1.00  0.00    -0.339 N 
ATOM     61  H   UNL     1      -5.918   8.806   3.641  1.00  0.00     0.164 HD
BRANCH  60  62
ATOM     62  C   UNL     1      -4.316   9.260   2.288  1.00  0.00     0.168 CG0
ATOM     63  C   UNL     1      -5.109   9.877   1.143  1.00  0.00     0.041 C 
ATOM     64  G   UNL     1      -3.117   8.452   1.749  1.00  0.00     0.000 G0
ENDBRANCH  60  62
ENDBRANCH  56  58
ENDBRANCH  54  56
ENDBRANCH  52  54
ENDBRANCH  51  52
ENDBRANCH  50  51
ENDBRANCH  49  50
BRANCH  49  65
ATOM     65  C   UNL     1      -7.956   0.250   6.315  1.00  0.00     0.326 C 
ATOM     66  O   UNL     1      -7.534  -0.676   6.993  1.00  0.00    -0.250 OA
BRANCH  65  67
ATOM     67  O   UNL     1      -9.130   0.120   5.659  1.00  0.00    -0.480 OA
ATOM     68  H   UNL     1      -9.791   0.462   6.299  1.00  0.00     0.296 HD
ENDBRANCH  65  67
ENDBRANCH  49  65
ENDBRANCH  47  49
ENDBRANCH  43  45
ENDBRANCH   1  43
BRANCH   1  69
ATOM     69  C   UNL     1     -10.552   5.869   7.094  1.00  0.00    -0.001 C 
ATOM     70  C   UNL     1     -10.375   6.695   6.047  1.00  0.00     0.001 C 
BRANCH  70  71
ATOM     71  C   UNL     1     -10.935   8.038   5.882  1.00  0.00    -0.055 C 
ATOM     72  C   UNL     1     -12.147   8.284   6.423  1.00  0.00    -0.018 C 
ATOM     73  C   UNL     1     -10.116   9.052   5.127  1.00  0.00     0.044 C 
BRANCH  72  74
ATOM     74  C   UNL     1     -12.964   9.568   6.413  1.00  0.00     0.038 C 
ATOM     75  C   UNL     1     -12.183  10.607   7.228  1.00  0.00     0.015 C 
BRANCH  74  76
ATOM     76  C   UNL     1     -14.392   9.257   6.949  1.00  0.00     0.128 C 
BRANCH  76  77
ATOM     77  O   UNL     1     -15.380   9.818   6.068  1.00  0.00    -0.381 OA
ATOM     78  C   UNL     1     -15.858  11.091   6.483  1.00  0.00     0.195 C 
ENDBRANCH  76  77
BRANCH  76  79
ATOM     79  C   UNL     1     -14.640   7.757   7.249  1.00  0.00     0.068 C 
BRANCH  79  80
ATOM     80  C   UNL     1     -14.744   7.333   8.694  1.00  0.00    -0.045 A 
ATOM     81  C   UNL     1     -15.884   6.675   9.173  1.00  0.00     0.004 A 
ATOM     82  C   UNL     1     -13.704   7.618   9.591  1.00  0.00     0.004 A 
ATOM     83  C   UNL     1     -15.979   6.298  10.514  1.00  0.00     0.000 A 
ATOM     84  C   UNL     1     -13.800   7.242  10.933  1.00  0.00     0.000 A 
ATOM     85  C   UNL     1     -14.936   6.581  11.393  1.00  0.00     0.000 A 
ENDBRANCH  79  80
ENDBRANCH  76  79
ENDBRANCH  74  76
ENDBRANCH  72  74
ENDBRANCH  70  71
ENDBRANCH   1  69
TORSDOF 17
ENDMDL
MODEL 6
REMARK VINA RESULT:    -7.252      2.978      7.217
REMARK INTER + INTRA:         -30.310
REMARK INTER:                 -21.468
REMARK INTRA:                  -8.842
REMARK UNBOUND:                -8.643
REMARK SMILES C=C1C(=O)N[C@H](C)C(=O)N[C@@H](CC(C)C)C(=O)N[C@@H](C(=O)O)[C@H](C)C(=O)N[C@@H](CCCN=C(N)N)C(=O)N[C@@H](/C=C/C(C)=C/[C@H](C)[C@H](Cc2ccccc2)OC)[C@H](C)C(=O)N[C@@H](C(=O)O)CCC(=O)N1C
REMARK SMILES IDX 39 1 38 2 37 3 36 4 28 6 27 7 25 8 26 9 23 11 24 12 19 13
REMARK SMILES IDX 18 14 16 15 17 16 11 18 10 19 8 20 9 21 12 24 13 25 14 26
REMARK SMILES IDX 15 27 20 28 21 29 22 30 29 32 30 33 31 34 32 35 33 36 34 37
REMARK SMILES IDX 35 38 57 43 58 44 59 45 60 46 61 47 62 49 66 50 67 51 68 52
REMARK SMILES IDX 69 53 70 54 71 55 2 56 1 57 3 58 4 59 5 60 6 62 7 63 63 65
REMARK SMILES IDX 64 66 65 67 40 69 41 70 42 71 44 72 43 73 45 74 46 75 47 76
REMARK SMILES IDX 55 77 56 78 48 79 49 80 50 81 54 82 51 83 53 84 52 85
REMARK H PARENT 38 5 27 10 18 17 10 22 22 31 34 39 34 40 35 41 35 42 61 48
REMARK H PARENT 5 61 65 68
REMARK Flexibility Score:  369.900
ROOT
ATOM      1  C   UNL     1     -11.247   3.858   9.046  1.00  0.00     0.117 C 
ENDROOT
BRANCH   1   2
ATOM      2  N   UNL     1     -10.774   3.507   7.706  1.00  0.00    -0.347 N 
ATOM      3  O   UNL     1      -8.530   3.826   8.072  1.00  0.00    -0.273 OA
ATOM      4  C   UNL     1      -9.441   3.431   7.352  1.00  0.00     0.243 C 
ATOM      5  H   UNL     1     -11.444   3.254   6.996  1.00  0.00     0.164 HD
BRANCH   4   6
ATOM      6  C   UNL     1      -9.210   2.954   5.895  1.00  0.00     0.171 C 
BRANCH   6   7
ATOM      7  N   UNL     1      -7.770   2.841   5.614  1.00  0.00    -0.344 N 
ATOM      8  C   UNL     1      -7.228   3.410   4.482  1.00  0.00     0.226 C 
ATOM      9  O   UNL     1      -7.905   4.009   3.655  1.00  0.00    -0.275 OA
ATOM     10  H   UNL     1      -7.189   2.296   6.239  1.00  0.00     0.164 HD
BRANCH   8  11
ATOM     11  C   UNL     1      -5.722   3.253   4.362  1.00  0.00     0.109 C 
ATOM     12  C   UNL     1      -5.338   2.958   2.912  1.00  0.00     0.021 C 
BRANCH  11  13
ATOM     13  C   UNL     1      -5.019   4.477   4.982  1.00  0.00     0.204 C 
BRANCH  13  14
ATOM     14  N   UNL     1      -5.615   5.740   4.537  1.00  0.00    -0.340 N 
ATOM     15  C   UNL     1      -4.997   6.585   3.641  1.00  0.00     0.243 C 
ATOM     16  O   UNL     1      -3.926   6.308   3.104  1.00  0.00    -0.273 OA
ATOM     17  H   UNL     1      -6.423   6.098   5.054  1.00  0.00     0.164 HD
BRANCH  15  18
ATOM     18  C   UNL     1      -5.712   7.949   3.482  1.00  0.00     0.171 C 
BRANCH  18  19
ATOM     19  N   UNL     1      -5.520   8.362   2.093  1.00  0.00    -0.343 N 
ATOM     20  C   UNL     1      -4.749   9.459   1.759  1.00  0.00     0.242 CG0
ATOM     21  O   UNL     1      -4.300  10.215   2.618  1.00  0.00    -0.273 OA
ATOM     22  H   UNL     1      -5.968   7.836   1.351  1.00  0.00     0.164 HD
ATOM     23  G   UNL     1      -4.598   9.693   0.242  1.00  0.00     0.000 G0
ENDBRANCH  18  19
BRANCH  18  24
ATOM     24  C   UNL     1      -7.201   7.823   3.830  1.00  0.00     0.038 C 
BRANCH  24  25
ATOM     25  C   UNL     1      -8.126   8.789   3.060  1.00  0.00    -0.015 C 
ATOM     26  C   UNL     1      -8.751   9.849   3.968  1.00  0.00     0.007 C 
ATOM     27  C   UNL     1      -9.231   7.995   2.359  1.00  0.00     0.007 C 
ENDBRANCH  24  25
ENDBRANCH  18  24
ENDBRANCH  15  18
ENDBRANCH  13  14
BRANCH  13  28
ATOM     28  C   UNL     1      -5.047   4.476   6.514  1.00  0.00     0.327 C 
ATOM     29  O   UNL     1      -5.117   3.493   7.235  1.00  0.00    -0.250 OA
BRANCH  28  30
ATOM     30  O   UNL     1      -5.105   5.716   7.042  1.00  0.00    -0.480 OA
ATOM     31  H   UNL     1      -4.912   5.582   7.993  1.00  0.00     0.296 HD
ENDBRANCH  28  30
ENDBRANCH  13  28
ENDBRANCH  11  13
ENDBRANCH   8  11
ENDBRANCH   6   7
BRANCH   6  32
ATOM     32  C   UNL     1      -9.916   1.610   5.688  1.00  0.00     0.037 C 
BRANCH  32  33
ATOM     33  C   UNL     1     -10.610   1.525   4.322  1.00  0.00     0.026 C 
BRANCH  33  34
ATOM     34  C   UNL     1     -11.949   0.789   4.390  1.00  0.00     0.146 C 
BRANCH  34  35
ATOM     35  N   UNL     1     -12.186   0.124   3.116  1.00  0.00    -0.254 NA
ATOM     36  C   UNL     1     -11.944  -1.131   3.024  1.00  0.00     0.185 C 
ATOM     37  N   UNL     1     -12.164  -1.755   1.856  1.00  0.00    -0.370 N 
ATOM     38  N   UNL     1     -11.480  -1.973   3.964  1.00  0.00    -0.370 N 
ATOM     39  H   UNL     1     -12.525  -1.188   1.099  1.00  0.00     0.159 HD
ATOM     40  H   UNL     1     -12.166  -2.755   1.752  1.00  0.00     0.159 HD
ATOM     41  H   UNL     1     -11.199  -2.911   3.730  1.00  0.00     0.159 HD
ATOM     42  H   UNL     1     -11.256  -1.638   4.888  1.00  0.00     0.159 HD
ENDBRANCH  34  35
ENDBRANCH  33  34
ENDBRANCH  32  33
ENDBRANCH   6  32
ENDBRANCH   4   6
ENDBRANCH   1   2
BRANCH   1  43
ATOM     43  C   UNL     1     -12.107   2.681   9.591  1.00  0.00     0.102 C 
ATOM     44  C   UNL     1     -11.360   1.792  10.600  1.00  0.00     0.020 C 
BRANCH  43  45
ATOM     45  C   UNL     1     -12.765   1.905   8.446  1.00  0.00     0.225 C 
ATOM     46  O   UNL     1     -13.356   2.450   7.519  1.00  0.00    -0.275 OA
ATOM     47  N   UNL     1     -12.736   0.534   8.567  1.00  0.00    -0.342 N 
ATOM     48  H   UNL     1     -12.122   0.105   9.245  1.00  0.00     0.164 HD
BRANCH  47  49
ATOM     49  C   UNL     1     -13.295  -0.338   7.529  1.00  0.00     0.192 C 
BRANCH  49  50
ATOM     50  C   UNL     1     -14.765  -0.628   7.839  1.00  0.00     0.047 C 
BRANCH  50  51
ATOM     51  C   UNL     1     -15.707  -0.087   6.755  1.00  0.00     0.103 C 
BRANCH  51  52
ATOM     52  C   UNL     1     -17.169  -0.121   7.195  1.00  0.00     0.226 C 
ATOM     53  O   UNL     1     -17.658  -1.174   7.608  1.00  0.00    -0.275 OA
BRANCH  52  54
ATOM     54  N   UNL     1     -17.859   1.105   7.170  1.00  0.00    -0.311 N 
ATOM     55  C   UNL     1     -18.229   1.739   5.898  1.00  0.00     0.153 C 
BRANCH  54  56
ATOM     56  C   UNL     1     -18.224   1.764   8.356  1.00  0.00     0.102 C 
ATOM     57  C   UNL     1     -17.666   2.899   8.808  1.00  0.00     0.043 C 
BRANCH  56  58
ATOM     58  C   UNL     1     -19.350   1.242   9.218  1.00  0.00     0.268 C 
ATOM     59  O   UNL     1     -20.509   1.619   9.106  1.00  0.00    -0.268 OA
ATOM     60  N   UNL     1     -18.951   0.257  10.089  1.00  0.00    -0.339 N 
ATOM     61  H   UNL     1     -17.970   0.008  10.127  1.00  0.00     0.164 HD
BRANCH  60  62
ATOM     62  C   UNL     1     -19.893  -0.431  10.972  1.00  0.00     0.168 CG0
ATOM     63  C   UNL     1     -20.482  -1.661  10.292  1.00  0.00     0.041 C 
ATOM     64  G   UNL     1     -21.009   0.545  11.397  1.00  0.00     0.000 G0
ENDBRANCH  60  62
ENDBRANCH  56  58
ENDBRANCH  54  56
ENDBRANCH  52  54
ENDBRANCH  51  52
ENDBRANCH  50  51
ENDBRANCH  49  50
BRANCH  49  65
ATOM     65  C   UNL     1     -12.524  -1.664   7.428  1.00  0.00     0.326 C 
ATOM     66  O   UNL     1     -12.758  -2.563   6.633  1.00  0.00    -0.250 OA
BRANCH  65  67
ATOM     67  O   UNL     1     -11.553  -1.824   8.354  1.00  0.00    -0.480 OA
ATOM     68  H   UNL     1     -12.039  -2.132   9.149  1.00  0.00     0.296 HD
ENDBRANCH  65  67
ENDBRANCH  49  65
ENDBRANCH  47  49
ENDBRANCH  43  45
ENDBRANCH   1  43
BRANCH   1  69
ATOM     69  C   UNL     1     -11.876   5.233   8.927  1.00  0.00    -0.001 C 
ATOM     70  C   UNL     1     -13.069   5.630   9.405  1.00  0.00     0.001 C 
BRANCH  70  71
ATOM     71  C   UNL     1     -13.657   6.967   9.303  1.00  0.00    -0.055 C 
ATOM     72  C   UNL     1     -14.438   7.229   8.234  1.00  0.00    -0.018 C 
ATOM     73  C   UNL     1     -13.355   7.953  10.401  1.00  0.00     0.044 C 
BRANCH  72  74
ATOM     74  C   UNL     1     -15.174   8.511   7.870  1.00  0.00     0.038 C 
ATOM     75  C   UNL     1     -16.659   8.154   7.726  1.00  0.00     0.015 C 
BRANCH  74  76
ATOM     76  C   UNL     1     -14.522   9.118   6.593  1.00  0.00     0.128 C 
BRANCH  76  77
ATOM     77  O   UNL     1     -15.281  10.254   6.147  1.00  0.00    -0.381 OA
ATOM     78  C   UNL     1     -14.569  11.482   6.223  1.00  0.00     0.195 C 
ENDBRANCH  76  77
BRANCH  76  79
ATOM     79  C   UNL     1     -13.011   9.428   6.745  1.00  0.00     0.068 C 
BRANCH  79  80
ATOM     80  C   UNL     1     -12.025   8.371   6.311  1.00  0.00    -0.045 A 
ATOM     81  C   UNL     1     -10.758   8.280   6.901  1.00  0.00     0.004 A 
ATOM     82  C   UNL     1     -12.355   7.476   5.282  1.00  0.00     0.004 A 
ATOM     83  C   UNL     1      -9.846   7.308   6.484  1.00  0.00     0.000 A 
ATOM     84  C   UNL     1     -11.443   6.505   4.865  1.00  0.00     0.000 A 
ATOM     85  C   UNL     1     -10.189   6.420   5.467  1.00  0.00     0.000 A 
ENDBRANCH  79  80
ENDBRANCH  76  79
ENDBRANCH  74  76
ENDBRANCH  72  74
ENDBRANCH  70  71
ENDBRANCH   1  69
TORSDOF 17
ENDMDL
MODEL 7
REMARK VINA RESULT:    -7.234      2.708     11.274
REMARK INTER + INTRA:         -30.254
REMARK INTER:                 -24.463
REMARK INTRA:                  -5.791
REMARK UNBOUND:                -8.643
REMARK SMILES C=C1C(=O)N[C@H](C)C(=O)N[C@@H](CC(C)C)C(=O)N[C@@H](C(=O)O)[C@H](C)C(=O)N[C@@H](CCCN=C(N)N)C(=O)N[C@@H](/C=C/C(C)=C/[C@H](C)[C@H](Cc2ccccc2)OC)[C@H](C)C(=O)N[C@@H](C(=O)O)CCC(=O)N1C
REMARK SMILES IDX 39 1 38 2 37 3 36 4 28 6 27 7 25 8 26 9 23 11 24 12 19 13
REMARK SMILES IDX 18 14 16 15 17 16 11 18 10 19 8 20 9 21 12 24 13 25 14 26
REMARK SMILES IDX 15 27 20 28 21 29 22 30 29 32 30 33 31 34 32 35 33 36 34 37
REMARK SMILES IDX 35 38 57 43 58 44 59 45 60 46 61 47 62 49 66 50 67 51 68 52
REMARK SMILES IDX 69 53 70 54 71 55 2 56 1 57 3 58 4 59 5 60 6 62 7 63 63 65
REMARK SMILES IDX 64 66 65 67 40 69 41 70 42 71 44 72 43 73 45 74 46 75 47 76
REMARK SMILES IDX 55 77 56 78 48 79 49 80 50 81 54 82 51 83 53 84 52 85
REMARK H PARENT 38 5 27 10 18 17 10 22 22 31 34 39 34 40 35 41 35 42 61 48
REMARK H PARENT 5 61 65 68
REMARK Flexibility Score:  369.900
ROOT
ATOM      1  C   UNL     1     -11.433   6.471   6.421  1.00  0.00     0.117 C 
ENDROOT
BRANCH   1   2
ATOM      2  N   UNL     1     -12.694   6.215   7.119  1.00  0.00    -0.347 N 
ATOM      3  O   UNL     1     -12.895   8.252   8.159  1.00  0.00    -0.273 OA
ATOM      4  C   UNL     1     -13.372   7.162   7.862  1.00  0.00     0.243 C 
ATOM      5  H   UNL     1     -13.137   5.314   7.026  1.00  0.00     0.164 HD
BRANCH   4   6
ATOM      6  C   UNL     1     -14.726   6.659   8.426  1.00  0.00     0.171 C 
BRANCH   6   7
ATOM      7  N   UNL     1     -14.507   5.810   9.608  1.00  0.00    -0.344 N 
ATOM      8  C   UNL     1     -15.547   5.096  10.161  1.00  0.00     0.226 C 
ATOM      9  O   UNL     1     -16.690   5.145   9.722  1.00  0.00    -0.275 OA
ATOM     10  H   UNL     1     -13.592   5.797  10.040  1.00  0.00     0.164 HD
BRANCH   8  11
ATOM     11  C   UNL     1     -15.150   4.226  11.342  1.00  0.00     0.109 C 
ATOM     12  C   UNL     1     -15.980   4.597  12.571  1.00  0.00     0.021 C 
BRANCH  11  13
ATOM     13  C   UNL     1     -15.217   2.739  10.940  1.00  0.00     0.204 C 
BRANCH  13  14
ATOM     14  N   UNL     1     -16.463   2.412  10.241  1.00  0.00    -0.340 N 
ATOM     15  C   UNL     1     -17.054   1.169  10.308  1.00  0.00     0.243 C 
ATOM     16  O   UNL     1     -16.609   0.263  11.010  1.00  0.00    -0.273 OA
ATOM     17  H   UNL     1     -16.799   3.064   9.527  1.00  0.00     0.164 HD
BRANCH  15  18
ATOM     18  C   UNL     1     -18.241   0.994   9.328  1.00  0.00     0.171 C 
BRANCH  18  19
ATOM     19  N   UNL     1     -19.432   0.780  10.147  1.00  0.00    -0.343 N 
ATOM     20  C   UNL     1     -20.062  -0.448  10.211  1.00  0.00     0.242 CG0
ATOM     21  O   UNL     1     -19.730  -1.380   9.482  1.00  0.00    -0.273 OA
ATOM     22  H   UNL     1     -19.815   1.553  10.681  1.00  0.00     0.164 HD
ATOM     23  G   UNL     1     -21.254  -0.502  11.188  1.00  0.00     0.000 G0
ENDBRANCH  18  19
BRANCH  18  24
ATOM     24  C   UNL     1     -18.390   2.230   8.432  1.00  0.00     0.038 C 
BRANCH  24  25
ATOM     25  C   UNL     1     -17.957   2.019   6.966  1.00  0.00    -0.015 C 
ATOM     26  C   UNL     1     -17.472   0.594   6.698  1.00  0.00     0.007 C 
ATOM     27  C   UNL     1     -16.852   3.016   6.607  1.00  0.00     0.007 C 
ENDBRANCH  24  25
ENDBRANCH  18  24
ENDBRANCH  15  18
ENDBRANCH  13  14
BRANCH  13  28
ATOM     28  C   UNL     1     -14.061   2.307  10.032  1.00  0.00     0.327 C 
ATOM     29  O   UNL     1     -13.893   2.638   8.868  1.00  0.00    -0.250 OA
BRANCH  28  30
ATOM     30  O   UNL     1     -13.252   1.393  10.605  1.00  0.00    -0.480 OA
ATOM     31  H   UNL     1     -12.358   1.788  10.542  1.00  0.00     0.296 HD
ENDBRANCH  28  30
ENDBRANCH  13  28
ENDBRANCH  11  13
ENDBRANCH   8  11
ENDBRANCH   6   7
BRANCH   6  32
ATOM     32  C   UNL     1     -15.606   7.865   8.773  1.00  0.00     0.037 C 
BRANCH  32  33
ATOM     33  C   UNL     1     -16.756   8.049   7.773  1.00  0.00     0.026 C 
BRANCH  33  34
ATOM     34  C   UNL     1     -16.751   9.434   7.124  1.00  0.00     0.146 C 
BRANCH  34  35
ATOM     35  N   UNL     1     -15.531   9.581   6.341  1.00  0.00    -0.254 NA
ATOM     36  C   UNL     1     -15.091  10.761   6.106  1.00  0.00     0.185 C 
ATOM     37  N   UNL     1     -13.965  10.908   5.390  1.00  0.00    -0.370 N 
ATOM     38  N   UNL     1     -15.605  11.945   6.483  1.00  0.00    -0.370 N 
ATOM     39  H   UNL     1     -13.512  10.059   5.077  1.00  0.00     0.159 HD
ATOM     40  H   UNL     1     -13.466  11.777   5.311  1.00  0.00     0.159 HD
ATOM     41  H   UNL     1     -15.242  12.810   6.117  1.00  0.00     0.159 HD
ATOM     42  H   UNL     1     -16.460  11.987   7.014  1.00  0.00     0.159 HD
ENDBRANCH  34  35
ENDBRANCH  33  34
ENDBRANCH  32  33
ENDBRANCH   6  32
ENDBRANCH   4   6
ENDBRANCH   1   2
BRANCH   1  43
ATOM     43  C   UNL     1     -11.659   6.257   4.897  1.00  0.00     0.102 C 
ATOM     44  C   UNL     1     -11.488   4.794   4.452  1.00  0.00     0.020 C 
BRANCH  43  45
ATOM     45  C   UNL     1     -10.841   7.256   4.074  1.00  0.00     0.225 C 
ATOM     46  O   UNL     1     -10.557   7.079   2.893  1.00  0.00    -0.275 OA
ATOM     47  N   UNL     1     -10.355   8.340   4.770  1.00  0.00    -0.342 N 
ATOM     48  H   UNL     1     -10.720   8.548   5.689  1.00  0.00     0.164 HD
BRANCH  47  49
ATOM     49  C   UNL     1      -9.586   9.396   4.104  1.00  0.00     0.192 C 
BRANCH  49  50
ATOM     50  C   UNL     1      -8.089   9.134   4.287  1.00  0.00     0.047 C 
BRANCH  50  51
ATOM     51  C   UNL     1      -7.509   8.261   3.167  1.00  0.00     0.103 C 
BRANCH  51  52
ATOM     52  C   UNL     1      -6.829   7.006   3.711  1.00  0.00     0.226 C 
ATOM     53  O   UNL     1      -7.508   6.013   3.981  1.00  0.00    -0.275 OA
BRANCH  52  54
ATOM     54  N   UNL     1      -5.426   7.043   3.801  1.00  0.00    -0.311 N 
ATOM     55  C   UNL     1      -4.730   6.533   4.990  1.00  0.00     0.153 C 
BRANCH  54  56
ATOM     56  C   UNL     1      -4.638   7.560   2.759  1.00  0.00     0.102 C 
ATOM     57  C   UNL     1      -3.981   6.819   1.852  1.00  0.00     0.043 C 
BRANCH  56  58
ATOM     58  C   UNL     1      -4.509   9.051   2.552  1.00  0.00     0.268 C 
ATOM     59  O   UNL     1      -3.659   9.733   3.109  1.00  0.00    -0.268 OA
ATOM     60  N   UNL     1      -5.398   9.548   1.629  1.00  0.00    -0.339 N 
ATOM     61  H   UNL     1      -6.078   8.918   1.220  1.00  0.00     0.164 HD
BRANCH  60  62
ATOM     62  C   UNL     1      -5.403  10.955   1.232  1.00  0.00     0.168 CG0
ATOM     63  C   UNL     1      -6.611  11.682   1.811  1.00  0.00     0.041 C 
ATOM     64  G   UNL     1      -5.391  11.058  -0.307  1.00  0.00     0.000 G0
ENDBRANCH  60  62
ENDBRANCH  56  58
ENDBRANCH  54  56
ENDBRANCH  52  54
ENDBRANCH  51  52
ENDBRANCH  50  51
ENDBRANCH  49  50
BRANCH  49  65
ATOM     65  C   UNL     1      -9.932  10.785   4.661  1.00  0.00     0.326 C 
ATOM     66  O   UNL     1     -11.059  11.244   4.777  1.00  0.00    -0.250 OA
BRANCH  65  67
ATOM     67  O   UNL     1      -8.863  11.545   4.985  1.00  0.00    -0.480 OA
ATOM     68  H   UNL     1      -8.097  10.964   4.786  1.00  0.00     0.296 HD
ENDBRANCH  65  67
ENDBRANCH  49  65
ENDBRANCH  47  49
ENDBRANCH  43  45
ENDBRANCH   1  43
BRANCH   1  69
ATOM     69  C   UNL     1     -10.380   5.640   7.130  1.00  0.00    -0.001 C 
ATOM     70  C   UNL     1      -9.066   5.908   7.242  1.00  0.00     0.001 C 
BRANCH  70  71
ATOM     71  C   UNL     1      -8.063   5.109   7.947  1.00  0.00    -0.055 C 
ATOM     72  C   UNL     1      -7.806   3.869   7.480  1.00  0.00    -0.018 C 
ATOM     73  C   UNL     1      -7.382   5.729   9.139  1.00  0.00     0.044 C 
BRANCH  72  74
ATOM     74  C   UNL     1      -6.825   2.827   8.000  1.00  0.00     0.038 C 
ATOM     75  C   UNL     1      -5.429   3.461   7.962  1.00  0.00     0.015 C 
BRANCH  74  76
ATOM     76  C   UNL     1      -6.977   1.529   7.153  1.00  0.00     0.128 C 
BRANCH  76  77
ATOM     77  O   UNL     1      -7.774   0.568   7.867  1.00  0.00    -0.381 OA
ATOM     78  C   UNL     1      -8.651  -0.177   7.033  1.00  0.00     0.195 C 
ENDBRANCH  76  77
BRANCH  76  79
ATOM     79  C   UNL     1      -7.484   1.775   5.710  1.00  0.00     0.068 C 
BRANCH  79  80
ATOM     80  C   UNL     1      -6.455   1.917   4.614  1.00  0.00    -0.045 A 
ATOM     81  C   UNL     1      -5.848   3.152   4.350  1.00  0.00     0.004 A 
ATOM     82  C   UNL     1      -6.111   0.813   3.820  1.00  0.00     0.004 A 
ATOM     83  C   UNL     1      -4.908   3.278   3.325  1.00  0.00     0.000 A 
ATOM     84  C   UNL     1      -5.171   0.941   2.795  1.00  0.00     0.000 A 
ATOM     85  C   UNL     1      -4.569   2.173   2.549  1.00  0.00     0.000 A 
ENDBRANCH  79  80
ENDBRANCH  76  79
ENDBRANCH  74  76
ENDBRANCH  72  74
ENDBRANCH  70  71
ENDBRANCH   1  69
TORSDOF 17
ENDMDL
MODEL 8
REMARK VINA RESULT:    -7.159      3.225      7.923
REMARK INTER + INTRA:         -30.031
REMARK INTER:                 -20.868
REMARK INTRA:                  -9.163
REMARK UNBOUND:                -8.643
REMARK SMILES C=C1C(=O)N[C@H](C)C(=O)N[C@@H](CC(C)C)C(=O)N[C@@H](C(=O)O)[C@H](C)C(=O)N[C@@H](CCCN=C(N)N)C(=O)N[C@@H](/C=C/C(C)=C/[C@H](C)[C@H](Cc2ccccc2)OC)[C@H](C)C(=O)N[C@@H](C(=O)O)CCC(=O)N1C
REMARK SMILES IDX 39 1 38 2 37 3 36 4 28 6 27 7 25 8 26 9 23 11 24 12 19 13
REMARK SMILES IDX 18 14 16 15 17 16 11 18 10 19 8 20 9 21 12 24 13 25 14 26
REMARK SMILES IDX 15 27 20 28 21 29 22 30 29 32 30 33 31 34 32 35 33 36 34 37
REMARK SMILES IDX 35 38 57 43 58 44 59 45 60 46 61 47 62 49 66 50 67 51 68 52
REMARK SMILES IDX 69 53 70 54 71 55 2 56 1 57 3 58 4 59 5 60 6 62 7 63 63 65
REMARK SMILES IDX 64 66 65 67 40 69 41 70 42 71 44 72 43 73 45 74 46 75 47 76
REMARK SMILES IDX 55 77 56 78 48 79 49 80 50 81 54 82 51 83 53 84 52 85
REMARK H PARENT 38 5 27 10 18 17 10 22 22 31 34 39 34 40 35 41 35 42 61 48
REMARK H PARENT 5 61 65 68
REMARK Flexibility Score:  369.900
ROOT
ATOM      1  C   UNL     1     -11.898   0.820   9.256  1.00  0.00     0.117 C 
ENDROOT
BRANCH   1   2
ATOM      2  N   UNL     1     -10.922   1.452   8.367  1.00  0.00    -0.347 N 
ATOM      3  O   UNL     1      -9.038   0.435   9.196  1.00  0.00    -0.273 OA
ATOM      4  C   UNL     1      -9.577   1.139   8.348  1.00  0.00     0.243 C 
ATOM      5  H   UNL     1     -11.238   2.125   7.685  1.00  0.00     0.164 HD
BRANCH   4   6
ATOM      6  C   UNL     1      -8.778   1.891   7.253  1.00  0.00     0.171 C 
BRANCH   6   7
ATOM      7  N   UNL     1      -9.630   2.152   6.082  1.00  0.00    -0.344 N 
ATOM      8  C   UNL     1      -9.079   2.275   4.825  1.00  0.00     0.226 C 
ATOM      9  O   UNL     1      -7.873   2.198   4.623  1.00  0.00    -0.275 OA
ATOM     10  H   UNL     1     -10.624   2.289   6.219  1.00  0.00     0.164 HD
BRANCH   8  11
ATOM     11  C   UNL     1     -10.093   2.488   3.715  1.00  0.00     0.109 C 
ATOM     12  C   UNL     1     -11.500   2.170   4.221  1.00  0.00     0.021 C 
BRANCH  11  13
ATOM     13  C   UNL     1      -9.922   3.898   3.116  1.00  0.00     0.204 C 
BRANCH  13  14
ATOM     14  N   UNL     1      -9.666   4.908   4.148  1.00  0.00    -0.340 N 
ATOM     15  C   UNL     1     -10.377   6.086   4.235  1.00  0.00     0.243 C 
ATOM     16  O   UNL     1     -11.318   6.346   3.488  1.00  0.00    -0.273 OA
ATOM     17  H   UNL     1      -8.808   4.825   4.699  1.00  0.00     0.164 HD
BRANCH  15  18
ATOM     18  C   UNL     1      -9.795   7.085   5.266  1.00  0.00     0.171 C 
BRANCH  18  19
ATOM     19  N   UNL     1      -9.431   8.289   4.523  1.00  0.00    -0.343 N 
ATOM     20  C   UNL     1      -8.309   8.338   3.718  1.00  0.00     0.242 CG0
ATOM     21  O   UNL     1      -7.495   7.418   3.693  1.00  0.00    -0.273 OA
ATOM     22  H   UNL     1     -10.011   9.117   4.602  1.00  0.00     0.164 HD
ATOM     23  G   UNL     1      -8.132   9.665   2.952  1.00  0.00     0.000 G0
ENDBRANCH  18  19
BRANCH  18  24
ATOM     24  C   UNL     1     -10.823   7.390   6.363  1.00  0.00     0.038 C 
BRANCH  24  25
ATOM     25  C   UNL     1     -11.830   6.253   6.637  1.00  0.00    -0.015 C 
ATOM     26  C   UNL     1     -13.140   6.763   7.237  1.00  0.00     0.007 C 
ATOM     27  C   UNL     1     -11.199   5.223   7.578  1.00  0.00     0.007 C 
ENDBRANCH  24  25
ENDBRANCH  18  24
ENDBRANCH  15  18
ENDBRANCH  13  14
BRANCH  13  28
ATOM     28  C   UNL     1      -8.780   3.988   2.100  1.00  0.00     0.327 C 
ATOM     29  O   UNL     1      -8.756   3.473   0.993  1.00  0.00    -0.250 OA
BRANCH  28  30
ATOM     30  O   UNL     1      -7.691   4.620   2.583  1.00  0.00    -0.480 OA
ATOM     31  H   UNL     1      -7.951   4.890   3.488  1.00  0.00     0.296 HD
ENDBRANCH  28  30
ENDBRANCH  13  28
ENDBRANCH  11  13
ENDBRANCH   8  11
ENDBRANCH   6   7
BRANCH   6  32
ATOM     32  C   UNL     1      -8.233   3.200   7.836  1.00  0.00     0.037 C 
BRANCH  32  33
ATOM     33  C   UNL     1      -6.768   3.072   8.276  1.00  0.00     0.026 C 
BRANCH  33  34
ATOM     34  C   UNL     1      -5.922   4.272   7.848  1.00  0.00     0.146 C 
BRANCH  34  35
ATOM     35  N   UNL     1      -5.090   3.882   6.719  1.00  0.00    -0.254 NA
ATOM     36  C   UNL     1      -5.421   4.277   5.546  1.00  0.00     0.185 C 
ATOM     37  N   UNL     1      -4.659   3.927   4.499  1.00  0.00    -0.370 N 
ATOM     38  N   UNL     1      -6.470   5.032   5.174  1.00  0.00    -0.370 N 
ATOM     39  H   UNL     1      -3.841   3.365   4.699  1.00  0.00     0.159 HD
ATOM     40  H   UNL     1      -4.749   4.335   3.584  1.00  0.00     0.159 HD
ATOM     41  H   UNL     1      -6.701   5.160   4.202  1.00  0.00     0.159 HD
ATOM     42  H   UNL     1      -7.138   5.354   5.857  1.00  0.00     0.159 HD
ENDBRANCH  34  35
ENDBRANCH  33  34
ENDBRANCH  32  33
ENDBRANCH   6  32
ENDBRANCH   4   6
ENDBRANCH   1   2
BRANCH   1  43
ATOM     43  C   UNL     1     -12.949   0.072   8.386  1.00  0.00     0.102 C 
ATOM     44  C   UNL     1     -12.371  -1.140   7.636  1.00  0.00     0.020 C 
BRANCH  43  45
ATOM     45  C   UNL     1     -13.716   1.049   7.490  1.00  0.00     0.225 C 
ATOM     46  O   UNL     1     -13.213   2.067   7.022  1.00  0.00    -0.275 OA
ATOM     47  N   UNL     1     -15.051   0.765   7.311  1.00  0.00    -0.342 N 
ATOM     48  H   UNL     1     -15.408  -0.143   7.571  1.00  0.00     0.164 HD
BRANCH  47  49
ATOM     49  C   UNL     1     -15.901   1.593   6.450  1.00  0.00     0.192 C 
BRANCH  49  50
ATOM     50  C   UNL     1     -17.186   1.959   7.196  1.00  0.00     0.047 C 
BRANCH  50  51
ATOM     51  C   UNL     1     -17.154   1.515   8.665  1.00  0.00     0.103 C 
BRANCH  51  52
ATOM     52  C   UNL     1     -18.139   0.381   8.943  1.00  0.00     0.226 C 
ATOM     53  O   UNL     1     -18.239  -0.550   8.141  1.00  0.00    -0.275 OA
BRANCH  52  54
ATOM     54  N   UNL     1     -18.831   0.438  10.166  1.00  0.00    -0.311 N 
ATOM     55  C   UNL     1     -18.107   0.515  11.442  1.00  0.00     0.153 C 
BRANCH  54  56
ATOM     56  C   UNL     1     -20.235   0.430  10.214  1.00  0.00     0.102 C 
ATOM     57  C   UNL     1     -21.033   1.239   9.498  1.00  0.00     0.043 C 
BRANCH  56  58
ATOM     58  C   UNL     1     -20.976  -0.563  11.079  1.00  0.00     0.268 C 
ATOM     59  O   UNL     1     -21.134  -0.415  12.283  1.00  0.00    -0.268 OA
ATOM     60  N   UNL     1     -21.507  -1.611  10.365  1.00  0.00    -0.339 N 
ATOM     61  H   UNL     1     -21.321  -1.666   9.371  1.00  0.00     0.164 HD
BRANCH  60  62
ATOM     62  C   UNL     1     -22.314  -2.654  10.996  1.00  0.00     0.168 CG0
ATOM     63  C   UNL     1     -21.471  -3.882  11.312  1.00  0.00     0.041 C 
ATOM     64  G   UNL     1     -23.493  -3.024  10.073  1.00  0.00     0.000 G0
ENDBRANCH  60  62
ENDBRANCH  56  58
ENDBRANCH  54  56
ENDBRANCH  52  54
ENDBRANCH  51  52
ENDBRANCH  50  51
ENDBRANCH  49  50
BRANCH  49  65
ATOM     65  C   UNL     1     -16.260   0.868   5.143  1.00  0.00     0.326 C 
ATOM     66  O   UNL     1     -15.613   0.908   4.107  1.00  0.00    -0.250 OA
BRANCH  65  67
ATOM     67  O   UNL     1     -17.427   0.187   5.178  1.00  0.00    -0.480 OA
ATOM     68  H   UNL     1     -17.173  -0.722   4.910  1.00  0.00     0.296 HD
ENDBRANCH  65  67
ENDBRANCH  49  65
ENDBRANCH  47  49
ENDBRANCH  43  45
ENDBRANCH   1  43
BRANCH   1  69
ATOM     69  C   UNL     1     -12.370   1.904  10.207  1.00  0.00    -0.001 C 
ATOM     70  C   UNL     1     -11.705   3.012  10.579  1.00  0.00     0.001 C 
BRANCH  70  71
ATOM     71  C   UNL     1     -12.180   4.063  11.481  1.00  0.00    -0.055 C 
ATOM     72  C   UNL     1     -12.492   3.710  12.746  1.00  0.00    -0.018 C 
ATOM     73  C   UNL     1     -12.280   5.464  10.936  1.00  0.00     0.044 C 
BRANCH  72  74
ATOM     74  C   UNL     1     -13.001   4.576  13.889  1.00  0.00     0.038 C 
ATOM     75  C   UNL     1     -11.869   4.678  14.918  1.00  0.00     0.015 C 
BRANCH  74  76
ATOM     76  C   UNL     1     -14.324   3.960  14.433  1.00  0.00     0.128 C 
BRANCH  76  77
ATOM     77  O   UNL     1     -14.241   3.799  15.859  1.00  0.00    -0.381 OA
ATOM     78  C   UNL     1     -15.459   4.077  16.537  1.00  0.00     0.195 C 
ENDBRANCH  76  77
BRANCH  76  79
ATOM     79  C   UNL     1     -15.600   4.719  13.989  1.00  0.00     0.068 C 
BRANCH  79  80
ATOM     80  C   UNL     1     -15.709   5.134  12.542  1.00  0.00    -0.045 A 
ATOM     81  C   UNL     1     -15.569   6.476  12.163  1.00  0.00     0.004 A 
ATOM     82  C   UNL     1     -15.981   4.179  11.551  1.00  0.00     0.004 A 
ATOM     83  C   UNL     1     -15.684   6.853  10.824  1.00  0.00     0.000 A 
ATOM     84  C   UNL     1     -16.098   4.558  10.212  1.00  0.00     0.000 A 
ATOM     85  C   UNL     1     -15.947   5.894   9.848  1.00  0.00     0.000 A 
ENDBRANCH  79  80
ENDBRANCH  76  79
ENDBRANCH  74  76
ENDBRANCH  72  74
ENDBRANCH  70  71
ENDBRANCH   1  69
TORSDOF 17
ENDMDL
MODEL 9
REMARK VINA RESULT:    -7.156      2.759     11.500
REMARK INTER + INTRA:         -30.022
REMARK INTER:                 -21.011
REMARK INTRA:                  -9.011
REMARK UNBOUND:                -8.643
REMARK SMILES C=C1C(=O)N[C@H](C)C(=O)N[C@@H](CC(C)C)C(=O)N[C@@H](C(=O)O)[C@H](C)C(=O)N[C@@H](CCCN=C(N)N)C(=O)N[C@@H](/C=C/C(C)=C/[C@H](C)[C@H](Cc2ccccc2)OC)[C@H](C)C(=O)N[C@@H](C(=O)O)CCC(=O)N1C
REMARK SMILES IDX 39 1 38 2 37 3 36 4 28 6 27 7 25 8 26 9 23 11 24 12 19 13
REMARK SMILES IDX 18 14 16 15 17 16 11 18 10 19 8 20 9 21 12 24 13 25 14 26
REMARK SMILES IDX 15 27 20 28 21 29 22 30 29 32 30 33 31 34 32 35 33 36 34 37
REMARK SMILES IDX 35 38 57 43 58 44 59 45 60 46 61 47 62 49 66 50 67 51 68 52
REMARK SMILES IDX 69 53 70 54 71 55 2 56 1 57 3 58 4 59 5 60 6 62 7 63 63 65
REMARK SMILES IDX 64 66 65 67 40 69 41 70 42 71 44 72 43 73 45 74 46 75 47 76
REMARK SMILES IDX 55 77 56 78 48 79 49 80 50 81 54 82 51 83 53 84 52 85
REMARK H PARENT 38 5 27 10 18 17 10 22 22 31 34 39 34 40 35 41 35 42 61 48
REMARK H PARENT 5 61 65 68
REMARK Flexibility Score:  369.900
ROOT
ATOM      1  C   UNL     1     -12.340   1.432   5.034  1.00  0.00     0.117 C 
ENDROOT
BRANCH   1   2
ATOM      2  N   UNL     1     -13.657   1.173   5.618  1.00  0.00    -0.347 N 
ATOM      3  O   UNL     1     -14.824   0.919   3.658  1.00  0.00    -0.273 OA
ATOM      4  C   UNL     1     -14.779   0.845   4.881  1.00  0.00     0.243 C 
ATOM      5  H   UNL     1     -13.763   1.180   6.621  1.00  0.00     0.164 HD
BRANCH   4   6
ATOM      6  C   UNL     1     -16.025   0.536   5.749  1.00  0.00     0.171 C 
BRANCH   6   7
ATOM      7  N   UNL     1     -15.765   0.864   7.159  1.00  0.00    -0.344 N 
ATOM      8  C   UNL     1     -16.445   0.217   8.168  1.00  0.00     0.226 C 
ATOM      9  O   UNL     1     -17.300  -0.633   7.949  1.00  0.00    -0.275 OA
ATOM     10  H   UNL     1     -15.115   1.608   7.378  1.00  0.00     0.164 HD
BRANCH   8  11
ATOM     11  C   UNL     1     -16.025   0.628   9.569  1.00  0.00     0.109 C 
ATOM     12  C   UNL     1     -14.813   1.557   9.503  1.00  0.00     0.021 C 
BRANCH  11  13
ATOM     13  C   UNL     1     -17.238   1.198  10.331  1.00  0.00     0.204 C 
BRANCH  13  14
ATOM     14  N   UNL     1     -18.181   0.148  10.731  1.00  0.00    -0.340 N 
ATOM     15  C   UNL     1     -19.509   0.156  10.365  1.00  0.00     0.243 C 
ATOM     16  O   UNL     1     -19.985   1.014   9.624  1.00  0.00    -0.273 OA
ATOM     17  H   UNL     1     -17.890  -0.504  11.464  1.00  0.00     0.164 HD
BRANCH  15  18
ATOM     18  C   UNL     1     -20.352  -0.933  11.073  1.00  0.00     0.171 C 
BRANCH  18  19
ATOM     19  N   UNL     1     -20.082  -2.190  10.377  1.00  0.00    -0.343 N 
ATOM     20  C   UNL     1     -20.909  -2.660   9.375  1.00  0.00     0.242 CG0
ATOM     21  O   UNL     1     -21.979  -2.114   9.114  1.00  0.00    -0.273 OA
ATOM     22  H   UNL     1     -19.270  -2.738  10.638  1.00  0.00     0.164 HD
ATOM     23  G   UNL     1     -20.420  -3.960   8.704  1.00  0.00     0.000 G0
ENDBRANCH  18  19
BRANCH  18  24
ATOM     24  C   UNL     1     -19.983  -1.023  12.559  1.00  0.00     0.038 C 
BRANCH  24  25
ATOM     25  C   UNL     1     -19.365  -2.370  12.989  1.00  0.00    -0.015 C 
ATOM     26  C   UNL     1     -20.248  -3.129  13.980  1.00  0.00     0.007 C 
ATOM     27  C   UNL     1     -17.985  -2.130  13.607  1.00  0.00     0.007 C 
ENDBRANCH  24  25
ENDBRANCH  18  24
ENDBRANCH  15  18
ENDBRANCH  13  14
BRANCH  13  28
ATOM     28  C   UNL     1     -16.849   1.966  11.597  1.00  0.00     0.327 C 
ATOM     29  O   UNL     1     -16.730   3.177  11.700  1.00  0.00    -0.250 OA
BRANCH  28  30
ATOM     30  O   UNL     1     -16.519   1.158  12.625  1.00  0.00    -0.480 OA
ATOM     31  H   UNL     1     -16.932   1.581  13.407  1.00  0.00     0.296 HD
ENDBRANCH  28  30
ENDBRANCH  13  28
ENDBRANCH  11  13
ENDBRANCH   8  11
ENDBRANCH   6   7
BRANCH   6  32
ATOM     32  C   UNL     1     -17.221   1.331   5.213  1.00  0.00     0.037 C 
BRANCH  32  33
ATOM     33  C   UNL     1     -16.999   2.847   5.310  1.00  0.00     0.026 C 
BRANCH  33  34
ATOM     34  C   UNL     1     -17.847   3.493   6.406  1.00  0.00     0.146 C 
BRANCH  34  35
ATOM     35  N   UNL     1     -17.026   3.662   7.597  1.00  0.00    -0.254 NA
ATOM     36  C   UNL     1     -17.102   4.765   8.244  1.00  0.00     0.185 C 
ATOM     37  N   UNL     1     -16.353   4.929   9.346  1.00  0.00    -0.370 N 
ATOM     38  N   UNL     1     -17.855   5.848   7.983  1.00  0.00    -0.370 N 
ATOM     39  H   UNL     1     -15.765   4.151   9.616  1.00  0.00     0.159 HD
ATOM     40  H   UNL     1     -16.482   5.683   9.999  1.00  0.00     0.159 HD
ATOM     41  H   UNL     1     -17.723   6.709   8.488  1.00  0.00     0.159 HD
ATOM     42  H   UNL     1     -18.456   5.871   7.174  1.00  0.00     0.159 HD
ENDBRANCH  34  35
ENDBRANCH  33  34
ENDBRANCH  32  33
ENDBRANCH   6  32
ENDBRANCH   4   6
ENDBRANCH   1   2
BRANCH   1  43
ATOM     43  C   UNL     1     -11.287   0.566   5.785  1.00  0.00     0.102 C 
ATOM     44  C   UNL     1     -11.700  -0.908   5.933  1.00  0.00     0.020 C 
BRANCH  43  45
ATOM     45  C   UNL     1     -10.866   1.229   7.100  1.00  0.00     0.225 C 
ATOM     46  O   UNL     1     -11.619   1.345   8.063  1.00  0.00    -0.275 OA
ATOM     47  N   UNL     1      -9.605   1.780   7.109  1.00  0.00    -0.342 N 
ATOM     48  H   UNL     1      -8.952   1.546   6.374  1.00  0.00     0.164 HD
BRANCH  47  49
ATOM     49  C   UNL     1      -9.055   2.415   8.310  1.00  0.00     0.192 C 
BRANCH  49  50
ATOM     50  C   UNL     1      -8.156   3.586   7.906  1.00  0.00     0.047 C 
BRANCH  50  51
ATOM     51  C   UNL     1      -8.491   4.122   6.507  1.00  0.00     0.103 C 
BRANCH  51  52
ATOM     52  C   UNL     1      -7.405   3.783   5.488  1.00  0.00     0.226 C 
ATOM     53  O   UNL     1      -7.058   2.611   5.333  1.00  0.00    -0.275 OA
BRANCH  52  54
ATOM     54  N   UNL     1      -6.911   4.853   4.719  1.00  0.00    -0.311 N 
ATOM     55  C   UNL     1      -7.706   5.429   3.626  1.00  0.00     0.153 C 
BRANCH  54  56
ATOM     56  C   UNL     1      -5.647   5.413   4.969  1.00  0.00     0.102 C 
ATOM     57  C   UNL     1      -5.123   5.613   6.190  1.00  0.00     0.043 C 
BRANCH  56  58
ATOM     58  C   UNL     1      -4.733   5.804   3.832  1.00  0.00     0.268 C 
ATOM     59  O   UNL     1      -4.396   5.029   2.948  1.00  0.00    -0.268 OA
ATOM     60  N   UNL     1      -4.377   7.131   3.857  1.00  0.00    -0.339 N 
ATOM     61  H   UNL     1      -4.690   7.705   4.630  1.00  0.00     0.164 HD
BRANCH  60  62
ATOM     62  C   UNL     1      -3.548   7.735   2.814  1.00  0.00     0.168 CG0
ATOM     63  C   UNL     1      -4.356   8.715   1.973  1.00  0.00     0.041 C 
ATOM     64  G   UNL     1      -2.942   6.626   1.930  1.00  0.00     0.000 G0
ENDBRANCH  60  62
ENDBRANCH  56  58
ENDBRANCH  54  56
ENDBRANCH  52  54
ENDBRANCH  51  52
ENDBRANCH  50  51
ENDBRANCH  49  50
BRANCH  49  65
ATOM     65  C   UNL     1      -8.246   1.421   9.157  1.00  0.00     0.326 C 
ATOM     66  O   UNL     1      -8.640   0.867  10.173  1.00  0.00    -0.250 OA
BRANCH  65  67
ATOM     67  O   UNL     1      -6.980   1.217   8.731  1.00  0.00    -0.480 OA
ATOM     68  H   UNL     1      -6.618   2.125   8.638  1.00  0.00     0.296 HD
ENDBRANCH  65  67
ENDBRANCH  49  65
ENDBRANCH  47  49
ENDBRANCH  43  45
ENDBRANCH   1  43
BRANCH   1  69
ATOM     69  C   UNL     1     -12.173   2.940   5.018  1.00  0.00    -0.001 C 
ATOM     70  C   UNL     1     -11.610   3.689   4.054  1.00  0.00     0.001 C 
BRANCH  70  71
ATOM     71  C   UNL     1     -11.473   5.147   4.040  1.00  0.00    -0.055 C 
ATOM     72  C   UNL     1     -11.502   5.792   5.225  1.00  0.00    -0.018 C 
ATOM     73  C   UNL     1     -11.302   5.824   2.705  1.00  0.00     0.044 C 
BRANCH  72  74
ATOM     74  C   UNL     1     -11.382   7.281   5.515  1.00  0.00     0.038 C 
ATOM     75  C   UNL     1      -9.913   7.558   5.859  1.00  0.00     0.015 C 
BRANCH  74  76
ATOM     76  C   UNL     1     -12.397   7.657   6.634  1.00  0.00     0.128 C 
BRANCH  76  77
ATOM     77  O   UNL     1     -13.242   8.732   6.190  1.00  0.00    -0.381 OA
ATOM     78  C   UNL     1     -14.423   8.887   6.964  1.00  0.00     0.195 C 
ENDBRANCH  76  77
BRANCH  76  79
ATOM     79  C   UNL     1     -13.200   6.452   7.186  1.00  0.00     0.068 C 
BRANCH  79  80
ATOM     80  C   UNL     1     -12.867   5.956   8.573  1.00  0.00    -0.045 A 
ATOM     81  C   UNL     1     -13.304   6.646   9.711  1.00  0.00     0.004 A 
ATOM     82  C   UNL     1     -12.086   4.803   8.742  1.00  0.00     0.004 A 
ATOM     83  C   UNL     1     -12.980   6.188  10.990  1.00  0.00     0.000 A 
ATOM     84  C   UNL     1     -11.761   4.346  10.022  1.00  0.00     0.000 A 
ATOM     85  C   UNL     1     -12.210   5.038  11.144  1.00  0.00     0.000 A 
ENDBRANCH  79  80
ENDBRANCH  76  79
ENDBRANCH  74  76
ENDBRANCH  72  74
ENDBRANCH  70  71
ENDBRANCH   1  69
TORSDOF 17
ENDMDL
MODEL 10
REMARK VINA RESULT:    -7.151      3.772     12.312
REMARK INTER + INTRA:         -30.006
REMARK INTER:                 -21.727
REMARK INTRA:                  -8.280
REMARK UNBOUND:                -8.643
REMARK SMILES C=C1C(=O)N[C@H](C)C(=O)N[C@@H](CC(C)C)C(=O)N[C@@H](C(=O)O)[C@H](C)C(=O)N[C@@H](CCCN=C(N)N)C(=O)N[C@@H](/C=C/C(C)=C/[C@H](C)[C@H](Cc2ccccc2)OC)[C@H](C)C(=O)N[C@@H](C(=O)O)CCC(=O)N1C
REMARK SMILES IDX 39 1 38 2 37 3 36 4 28 6 27 7 25 8 26 9 23 11 24 12 19 13
REMARK SMILES IDX 18 14 16 15 17 16 11 18 10 19 8 20 9 21 12 24 13 25 14 26
REMARK SMILES IDX 15 27 20 28 21 29 22 30 29 32 30 33 31 34 32 35 33 36 34 37
REMARK SMILES IDX 35 38 57 43 58 44 59 45 60 46 61 47 62 49 66 50 67 51 68 52
REMARK SMILES IDX 69 53 70 54 71 55 2 56 1 57 3 58 4 59 5 60 6 62 7 63 63 65
REMARK SMILES IDX 64 66 65 67 40 69 41 70 42 71 44 72 43 73 45 74 46 75 47 76
REMARK SMILES IDX 55 77 56 78 48 79 49 80 50 81 54 82 51 83 53 84 52 85
REMARK H PARENT 38 5 27 10 18 17 10 22 22 31 34 39 34 40 35 41 35 42 61 48
REMARK H PARENT 5 61 65 68
REMARK Flexibility Score:  369.900
ROOT
ATOM      1  C   UNL     1     -17.013   1.735   8.485  1.00  0.00     0.117 C 
ENDROOT
BRANCH   1   2
ATOM      2  N   UNL     1     -17.286   1.252   9.839  1.00  0.00    -0.347 N 
ATOM      3  O   UNL     1     -19.559   1.003   9.631  1.00  0.00    -0.273 OA
ATOM      4  C   UNL     1     -18.529   0.837  10.277  1.00  0.00     0.243 C 
ATOM      5  H   UNL     1     -16.525   1.162  10.495  1.00  0.00     0.164 HD
BRANCH   4   6
ATOM      6  C   UNL     1     -18.529   0.289  11.727  1.00  0.00     0.171 C 
BRANCH   6   7
ATOM      7  N   UNL     1     -18.998  -1.105  11.750  1.00  0.00    -0.344 N 
ATOM      8  C   UNL     1     -19.793  -1.562  12.778  1.00  0.00     0.226 C 
ATOM      9  O   UNL     1     -20.127  -0.852  13.720  1.00  0.00    -0.275 OA
ATOM     10  H   UNL     1     -18.687  -1.740  11.025  1.00  0.00     0.164 HD
BRANCH   8  11
ATOM     11  C   UNL     1     -20.239  -3.006  12.631  1.00  0.00     0.109 C 
ATOM     12  C   UNL     1     -20.490  -3.622  14.007  1.00  0.00     0.021 C 
BRANCH  11  13
ATOM     13  C   UNL     1     -21.431  -3.087  11.656  1.00  0.00     0.204 C 
BRANCH  13  14
ATOM     14  N   UNL     1     -21.175  -4.011  10.547  1.00  0.00    -0.340 N 
ATOM     15  C   UNL     1     -20.547  -3.626   9.382  1.00  0.00     0.243 C 
ATOM     16  O   UNL     1     -20.103  -2.491   9.216  1.00  0.00    -0.273 OA
ATOM     17  H   UNL     1     -21.649  -4.918  10.558  1.00  0.00     0.164 HD
BRANCH  15  18
ATOM     18  C   UNL     1     -20.574  -4.710   8.277  1.00  0.00     0.171 C 
BRANCH  18  19
ATOM     19  N   UNL     1     -21.845  -4.558   7.572  1.00  0.00    -0.343 N 
ATOM     20  C   UNL     1     -22.820  -5.536   7.609  1.00  0.00     0.242 CG0
ATOM     21  O   UNL     1     -22.613  -6.632   8.123  1.00  0.00    -0.273 OA
ATOM     22  H   UNL     1     -22.018  -3.716   7.035  1.00  0.00     0.164 HD
ATOM     23  G   UNL     1     -24.123  -5.164   6.871  1.00  0.00     0.000 G0
ENDBRANCH  18  19
BRANCH  18  24
ATOM     24  C   UNL     1     -19.381  -4.545   7.328  1.00  0.00     0.038 C 
BRANCH  24  25
ATOM     25  C   UNL     1     -18.203  -5.505   7.600  1.00  0.00    -0.015 C 
ATOM     26  C   UNL     1     -16.941  -5.114   6.831  1.00  0.00     0.007 C 
ATOM     27  C   UNL     1     -18.609  -6.935   7.232  1.00  0.00     0.007 C 
ENDBRANCH  24  25
ENDBRANCH  18  24
ENDBRANCH  15  18
ENDBRANCH  13  14
BRANCH  13  28
ATOM     28  C   UNL     1     -22.731  -3.536  12.330  1.00  0.00     0.327 C 
ATOM     29  O   UNL     1     -23.185  -4.670  12.342  1.00  0.00    -0.250 OA
BRANCH  28  30
ATOM     30  O   UNL     1     -23.441  -2.512  12.844  1.00  0.00    -0.480 OA
ATOM     31  H   UNL     1     -23.538  -1.886  12.097  1.00  0.00     0.296 HD
ENDBRANCH  28  30
ENDBRANCH  13  28
ENDBRANCH  11  13
ENDBRANCH   8  11
ENDBRANCH   6   7
BRANCH   6  32
ATOM     32  C   UNL     1     -17.114   0.401  12.307  1.00  0.00     0.037 C 
BRANCH  32  33
ATOM     33  C   UNL     1     -17.051   1.369  13.497  1.00  0.00     0.026 C 
BRANCH  33  34
ATOM     34  C   UNL     1     -15.801   2.249  13.470  1.00  0.00     0.146 C 
BRANCH  34  35
ATOM     35  N   UNL     1     -15.251   2.242  12.121  1.00  0.00    -0.254 NA
ATOM     36  C   UNL     1     -14.051   2.655  11.945  1.00  0.00     0.185 C 
ATOM     37  N   UNL     1     -13.532   2.649  10.707  1.00  0.00    -0.370 N 
ATOM     38  N   UNL     1     -13.176   3.121  12.854  1.00  0.00    -0.370 N 
ATOM     39  H   UNL     1     -14.128   2.300   9.967  1.00  0.00     0.159 HD
ATOM     40  H   UNL     1     -12.556   2.789  10.513  1.00  0.00     0.159 HD
ATOM     41  H   UNL     1     -12.309   3.548  12.571  1.00  0.00     0.159 HD
ATOM     42  H   UNL     1     -13.437   3.198  13.824  1.00  0.00     0.159 HD
ENDBRANCH  34  35
ENDBRANCH  33  34
ENDBRANCH  32  33
ENDBRANCH   6  32
ENDBRANCH   4   6
ENDBRANCH   1   2
BRANCH   1  43
ATOM     43  C   UNL     1     -16.212   0.642   7.721  1.00  0.00     0.102 C 
ATOM     44  C   UNL     1     -17.085  -0.526   7.231  1.00  0.00     0.020 C 
BRANCH  43  45
ATOM     45  C   UNL     1     -14.980   0.204   8.520  1.00  0.00     0.225 C 
ATOM     46  O   UNL     1     -15.034  -0.160   9.691  1.00  0.00    -0.275 OA
ATOM     47  N   UNL     1     -13.775   0.333   7.867  1.00  0.00    -0.342 N 
ATOM     48  H   UNL     1     -13.761   0.486   6.869  1.00  0.00     0.164 HD
BRANCH  47  49
ATOM     49  C   UNL     1     -12.516  -0.080   8.495  1.00  0.00     0.192 C 
BRANCH  49  50
ATOM     50  C   UNL     1     -11.353   0.697   7.874  1.00  0.00     0.047 C 
BRANCH  50  51
ATOM     51  C   UNL     1     -10.833   1.805   8.800  1.00  0.00     0.103 C 
BRANCH  51  52
ATOM     52  C   UNL     1      -9.662   2.567   8.182  1.00  0.00     0.226 C 
ATOM     53  O   UNL     1      -9.799   3.754   7.878  1.00  0.00    -0.275 OA
BRANCH  52  54
ATOM     54  N   UNL     1      -8.448   1.865   8.067  1.00  0.00    -0.311 N 
ATOM     55  C   UNL     1      -8.019   0.921   9.107  1.00  0.00     0.153 C 
BRANCH  54  56
ATOM     56  C   UNL     1      -7.607   2.034   6.955  1.00  0.00     0.102 C 
ATOM     57  C   UNL     1      -7.726   1.370   5.793  1.00  0.00     0.043 C 
BRANCH  56  58
ATOM     58  C   UNL     1      -6.490   3.052   6.975  1.00  0.00     0.268 C 
ATOM     59  O   UNL     1      -5.931   3.411   8.002  1.00  0.00    -0.268 OA
ATOM     60  N   UNL     1      -6.127   3.480   5.721  1.00  0.00    -0.339 N 
ATOM     61  H   UNL     1      -6.648   3.142   4.921  1.00  0.00     0.164 HD
BRANCH  60  62
ATOM     62  C   UNL     1      -5.025   4.417   5.507  1.00  0.00     0.168 CG0
ATOM     63  C   UNL     1      -5.548   5.797   5.127  1.00  0.00     0.041 C 
ATOM     64  G   UNL     1      -4.085   3.870   4.413  1.00  0.00     0.000 G0
ENDBRANCH  60  62
ENDBRANCH  56  58
ENDBRANCH  54  56
ENDBRANCH  52  54
ENDBRANCH  51  52
ENDBRANCH  50  51
ENDBRANCH  49  50
BRANCH  49  65
ATOM     65  C   UNL     1     -12.268  -1.587   8.328  1.00  0.00     0.326 C 
ATOM     66  O   UNL     1     -11.855  -2.131   7.314  1.00  0.00    -0.250 OA
BRANCH  65  67
ATOM     67  O   UNL     1     -12.602  -2.336   9.402  1.00  0.00    -0.480 OA
ATOM     68  H   UNL     1     -12.640  -3.249   9.044  1.00  0.00     0.296 HD
ENDBRANCH  65  67
ENDBRANCH  49  65
ENDBRANCH  47  49
ENDBRANCH  43  45
ENDBRANCH   1  43
BRANCH   1  69
ATOM     69  C   UNL     1     -16.403   3.116   8.643  1.00  0.00    -0.001 C 
ATOM     70  C   UNL     1     -16.729   4.055   9.549  1.00  0.00     0.001 C 
BRANCH  70  71
ATOM     71  C   UNL     1     -16.119   5.377   9.705  1.00  0.00    -0.055 C 
ATOM     72  C   UNL     1     -16.019   6.155   8.607  1.00  0.00    -0.018 C 
ATOM     73  C   UNL     1     -15.652   5.777  11.080  1.00  0.00     0.044 C 
BRANCH  72  74
ATOM     74  C   UNL     1     -15.441   7.557   8.469  1.00  0.00     0.038 C 
ATOM     75  C   UNL     1     -16.572   8.466   7.971  1.00  0.00     0.015 C 
BRANCH  74  76
ATOM     76  C   UNL     1     -14.195   7.495   7.538  1.00  0.00     0.128 C 
BRANCH  76  77
ATOM     77  O   UNL     1     -13.592   8.796   7.439  1.00  0.00    -0.381 OA
ATOM     78  C   UNL     1     -12.280   8.861   7.984  1.00  0.00     0.195 C 
ENDBRANCH  76  77
BRANCH  76  79
ATOM     79  C   UNL     1     -13.178   6.390   7.920  1.00  0.00     0.068 C 
BRANCH  79  80
ATOM     80  C   UNL     1     -12.806   5.376   6.865  1.00  0.00    -0.045 A 
ATOM     81  C   UNL     1     -13.385   4.100   6.855  1.00  0.00     0.004 A 
ATOM     82  C   UNL     1     -11.848   5.690   5.889  1.00  0.00     0.004 A 
ATOM     83  C   UNL     1     -13.025   3.163   5.884  1.00  0.00     0.000 A 
ATOM     84  C   UNL     1     -11.488   4.752   4.919  1.00  0.00     0.000 A 
ATOM     85  C   UNL     1     -12.078   3.490   4.916  1.00  0.00     0.000 A 
ENDBRANCH  79  80
ENDBRANCH  76  79
ENDBRANCH  74  76
ENDBRANCH  72  74
ENDBRANCH  70  71
ENDBRANCH   1  69
TORSDOF 17
ENDMDL
MODEL 11
REMARK VINA RESULT:    -7.120      3.429      7.113
REMARK INTER + INTRA:         -29.914
REMARK INTER:                 -21.833
REMARK INTRA:                  -8.080
REMARK UNBOUND:                -8.643
REMARK SMILES C=C1C(=O)N[C@H](C)C(=O)N[C@@H](CC(C)C)C(=O)N[C@@H](C(=O)O)[C@H](C)C(=O)N[C@@H](CCCN=C(N)N)C(=O)N[C@@H](/C=C/C(C)=C/[C@H](C)[C@H](Cc2ccccc2)OC)[C@H](C)C(=O)N[C@@H](C(=O)O)CCC(=O)N1C
REMARK SMILES IDX 39 1 38 2 37 3 36 4 28 6 27 7 25 8 26 9 23 11 24 12 19 13
REMARK SMILES IDX 18 14 16 15 17 16 11 18 10 19 8 20 9 21 12 24 13 25 14 26
REMARK SMILES IDX 15 27 20 28 21 29 22 30 29 32 30 33 31 34 32 35 33 36 34 37
REMARK SMILES IDX 35 38 57 43 58 44 59 45 60 46 61 47 62 49 66 50 67 51 68 52
REMARK SMILES IDX 69 53 70 54 71 55 2 56 1 57 3 58 4 59 5 60 6 62 7 63 63 65
REMARK SMILES IDX 64 66 65 67 40 69 41 70 42 71 44 72 43 73 45 74 46 75 47 76
REMARK SMILES IDX 55 77 56 78 48 79 49 80 50 81 54 82 51 83 53 84 52 85
REMARK H PARENT 38 5 27 10 18 17 10 22 22 31 34 39 34 40 35 41 35 42 61 48
REMARK H PARENT 5 61 65 68
REMARK Flexibility Score:  369.900
ROOT
ATOM      1  C   UNL     1     -15.171   4.271   8.950  1.00  0.00     0.117 C 
ENDROOT
BRANCH   1   2
ATOM      2  N   UNL     1     -14.067   3.452   8.448  1.00  0.00    -0.347 N 
ATOM      3  O   UNL     1     -13.075   2.993  10.467  1.00  0.00    -0.273 OA
ATOM      4  C   UNL     1     -13.156   2.801   9.258  1.00  0.00     0.243 C 
ATOM      5  H   UNL     1     -13.975   3.300   7.455  1.00  0.00     0.164 HD
BRANCH   4   6
ATOM      6  C   UNL     1     -12.139   1.930   8.478  1.00  0.00     0.171 C 
BRANCH   6   7
ATOM      7  N   UNL     1     -10.975   2.735   8.075  1.00  0.00    -0.344 N 
ATOM      8  C   UNL     1     -10.953   3.375   6.854  1.00  0.00     0.226 C 
ATOM      9  O   UNL     1     -11.871   3.291   6.047  1.00  0.00    -0.275 OA
ATOM     10  H   UNL     1     -10.169   2.773   8.686  1.00  0.00     0.164 HD
BRANCH   8  11
ATOM     11  C   UNL     1      -9.708   4.209   6.609  1.00  0.00     0.109 C 
ATOM     12  C   UNL     1      -9.672   5.396   7.571  1.00  0.00     0.021 C 
BRANCH  11  13
ATOM     13  C   UNL     1      -8.459   3.306   6.647  1.00  0.00     0.204 C 
BRANCH  13  14
ATOM     14  N   UNL     1      -7.593   3.512   5.481  1.00  0.00    -0.340 N 
ATOM     15  C   UNL     1      -7.054   2.471   4.757  1.00  0.00     0.243 C 
ATOM     16  O   UNL     1      -7.310   1.294   5.001  1.00  0.00    -0.273 OA
ATOM     17  H   UNL     1      -7.222   4.452   5.319  1.00  0.00     0.164 HD
BRANCH  15  18
ATOM     18  C   UNL     1      -6.011   2.925   3.706  1.00  0.00     0.171 C 
BRANCH  18  19
ATOM     19  N   UNL     1      -6.303   2.185   2.480  1.00  0.00    -0.343 N 
ATOM     20  C   UNL     1      -5.498   1.150   2.044  1.00  0.00     0.242 CG0
ATOM     21  O   UNL     1      -4.429   0.891   2.593  1.00  0.00    -0.273 OA
ATOM     22  H   UNL     1      -7.114   2.438   1.927  1.00  0.00     0.164 HD
ATOM     23  G   UNL     1      -6.008   0.437   0.775  1.00  0.00     0.000 G0
ENDBRANCH  18  19
BRANCH  18  24
ATOM     24  C   UNL     1      -6.092   4.440   3.480  1.00  0.00     0.038 C 
BRANCH  24  25
ATOM     25  C   UNL     1      -4.830   5.223   3.900  1.00  0.00    -0.015 C 
ATOM     26  C   UNL     1      -5.067   6.099   5.130  1.00  0.00     0.007 C 
ATOM     27  C   UNL     1      -4.352   6.091   2.734  1.00  0.00     0.007 C 
ENDBRANCH  24  25
ENDBRANCH  18  24
ENDBRANCH  15  18
ENDBRANCH  13  14
BRANCH  13  28
ATOM     28  C   UNL     1      -7.597   3.519   7.895  1.00  0.00     0.327 C 
ATOM     29  O   UNL     1      -6.579   4.191   7.964  1.00  0.00    -0.250 OA
BRANCH  28  30
ATOM     30  O   UNL     1      -8.001   2.781   8.949  1.00  0.00    -0.480 OA
ATOM     31  H   UNL     1      -8.939   2.576   8.754  1.00  0.00     0.296 HD
ENDBRANCH  28  30
ENDBRANCH  13  28
ENDBRANCH  11  13
ENDBRANCH   8  11
ENDBRANCH   6   7
BRANCH   6  32
ATOM     32  C   UNL     1     -11.710   0.749   9.356  1.00  0.00     0.037 C 
BRANCH  32  33
ATOM     33  C   UNL     1     -12.314  -0.579   8.877  1.00  0.00     0.026 C 
BRANCH  33  34
ATOM     34  C   UNL     1     -11.384  -1.335   7.928  1.00  0.00     0.146 C 
BRANCH  34  35
ATOM     35  N   UNL     1     -10.005  -1.005   8.259  1.00  0.00    -0.254 NA
ATOM     36  C   UNL     1      -9.276  -0.446   7.366  1.00  0.00     0.185 C 
ATOM     37  N   UNL     1      -8.005  -0.133   7.662  1.00  0.00    -0.370 N 
ATOM     38  N   UNL     1      -9.598  -0.100   6.107  1.00  0.00    -0.370 N 
ATOM     39  H   UNL     1      -7.689  -0.353   8.598  1.00  0.00     0.159 HD
ATOM     40  H   UNL     1      -7.429   0.457   7.086  1.00  0.00     0.159 HD
ATOM     41  H   UNL     1      -8.895   0.207   5.455  1.00  0.00     0.159 HD
ATOM     42  H   UNL     1     -10.518  -0.291   5.743  1.00  0.00     0.159 HD
ENDBRANCH  34  35
ENDBRANCH  33  34
ENDBRANCH  32  33
ENDBRANCH   6  32
ENDBRANCH   4   6
ENDBRANCH   1   2
BRANCH   1  43
ATOM     43  C   UNL     1     -16.466   3.881   8.180  1.00  0.00     0.102 C 
ATOM     44  C   UNL     1     -17.611   4.893   8.358  1.00  0.00     0.020 C 
BRANCH  43  45
ATOM     45  C   UNL     1     -16.865   2.432   8.474  1.00  0.00     0.225 C 
ATOM     46  O   UNL     1     -16.646   1.506   7.699  1.00  0.00    -0.275 OA
ATOM     47  N   UNL     1     -17.579   2.238   9.635  1.00  0.00    -0.342 N 
ATOM     48  H   UNL     1     -17.618   2.973  10.327  1.00  0.00     0.164 HD
BRANCH  47  49
ATOM     49  C   UNL     1     -17.997   0.900  10.062  1.00  0.00     0.192 C 
BRANCH  49  50
ATOM     50  C   UNL     1     -19.518   0.866  10.232  1.00  0.00     0.047 C 
BRANCH  50  51
ATOM     51  C   UNL     1     -20.087  -0.554  10.104  1.00  0.00     0.103 C 
BRANCH  51  52
ATOM     52  C   UNL     1     -20.692  -1.050  11.416  1.00  0.00     0.226 C 
ATOM     53  O   UNL     1     -20.850  -0.262  12.350  1.00  0.00    -0.275 OA
BRANCH  52  54
ATOM     54  N   UNL     1     -21.109  -2.394  11.445  1.00  0.00    -0.311 N 
ATOM     55  C   UNL     1     -20.735  -3.325  10.372  1.00  0.00     0.153 C 
BRANCH  54  56
ATOM     56  C   UNL     1     -21.890  -2.895  12.499  1.00  0.00     0.102 C 
ATOM     57  C   UNL     1     -23.232  -2.880  12.536  1.00  0.00     0.043 C 
BRANCH  56  58
ATOM     58  C   UNL     1     -21.245  -3.554  13.696  1.00  0.00     0.268 C 
ATOM     59  O   UNL     1     -20.182  -3.182  14.173  1.00  0.00    -0.268 OA
ATOM     60  N   UNL     1     -22.006  -4.566  14.231  1.00  0.00    -0.339 N 
ATOM     61  H   UNL     1     -22.871  -4.821  13.769  1.00  0.00     0.164 HD
BRANCH  60  62
ATOM     62  C   UNL     1     -21.599  -5.296  15.430  1.00  0.00     0.168 CG0
ATOM     63  C   UNL     1     -22.812  -5.731  16.244  1.00  0.00     0.041 C 
ATOM     64  G   UNL     1     -20.660  -4.414  16.279  1.00  0.00     0.000 G0
ENDBRANCH  60  62
ENDBRANCH  56  58
ENDBRANCH  54  56
ENDBRANCH  52  54
ENDBRANCH  51  52
ENDBRANCH  50  51
ENDBRANCH  49  50
BRANCH  49  65
ATOM     65  C   UNL     1     -17.329   0.493  11.385  1.00  0.00     0.326 C 
ATOM     66  O   UNL     1     -16.309  -0.173  11.490  1.00  0.00    -0.250 OA
BRANCH  65  67
ATOM     67  O   UNL     1     -17.993   0.881  12.495  1.00  0.00    -0.480 OA
ATOM     68  H   UNL     1     -17.591   1.749  12.714  1.00  0.00     0.296 HD
ENDBRANCH  65  67
ENDBRANCH  49  65
ENDBRANCH  47  49
ENDBRANCH  43  45
ENDBRANCH   1  43
BRANCH   1  69
ATOM     69  C   UNL     1     -14.690   5.710   8.896  1.00  0.00    -0.001 C 
ATOM     70  C   UNL     1     -13.862   6.261   7.990  1.00  0.00     0.001 C 
BRANCH  70  71
ATOM     71  C   UNL     1     -13.422   7.657   7.936  1.00  0.00    -0.055 C 
ATOM     72  C   UNL     1     -13.454   8.278   6.738  1.00  0.00    -0.018 C 
ATOM     73  C   UNL     1     -12.974   8.302   9.221  1.00  0.00     0.044 C 
BRANCH  72  74
ATOM     74  C   UNL     1     -13.065   9.706   6.384  1.00  0.00     0.038 C 
ATOM     75  C   UNL     1     -14.326  10.402   5.857  1.00  0.00     0.015 C 
BRANCH  74  76
ATOM     76  C   UNL     1     -11.874   9.667   5.382  1.00  0.00     0.128 C 
BRANCH  76  77
ATOM     77  O   UNL     1     -11.278  10.971   5.276  1.00  0.00    -0.381 OA
ATOM     78  C   UNL     1      -9.889  10.942   4.978  1.00  0.00     0.195 C 
ENDBRANCH  76  77
BRANCH  76  79
ATOM     79  C   UNL     1     -10.836   8.556   5.681  1.00  0.00     0.068 C 
BRANCH  79  80
ATOM     80  C   UNL     1     -10.561   7.537   4.602  1.00  0.00    -0.045 A 
ATOM     81  C   UNL     1     -11.496   6.539   4.297  1.00  0.00     0.004 A 
ATOM     82  C   UNL     1      -9.344   7.556   3.904  1.00  0.00     0.004 A 
ATOM     83  C   UNL     1     -11.228   5.591   3.307  1.00  0.00     0.000 A 
ATOM     84  C   UNL     1      -9.076   6.607   2.915  1.00  0.00     0.000 A 
ATOM     85  C   UNL     1     -10.019   5.626   2.616  1.00  0.00     0.000 A 
ENDBRANCH  79  80
ENDBRANCH  76  79
ENDBRANCH  74  76
ENDBRANCH  72  74
ENDBRANCH  70  71
ENDBRANCH   1  69
TORSDOF 17
ENDMDL
MODEL 12
REMARK VINA RESULT:    -7.100      3.438      8.088
REMARK INTER + INTRA:         -29.855
REMARK INTER:                 -22.656
REMARK INTRA:                  -7.199
REMARK UNBOUND:                -8.643
REMARK SMILES C=C1C(=O)N[C@H](C)C(=O)N[C@@H](CC(C)C)C(=O)N[C@@H](C(=O)O)[C@H](C)C(=O)N[C@@H](CCCN=C(N)N)C(=O)N[C@@H](/C=C/C(C)=C/[C@H](C)[C@H](Cc2ccccc2)OC)[C@H](C)C(=O)N[C@@H](C(=O)O)CCC(=O)N1C
REMARK SMILES IDX 39 1 38 2 37 3 36 4 28 6 27 7 25 8 26 9 23 11 24 12 19 13
REMARK SMILES IDX 18 14 16 15 17 16 11 18 10 19 8 20 9 21 12 24 13 25 14 26
REMARK SMILES IDX 15 27 20 28 21 29 22 30 29 32 30 33 31 34 32 35 33 36 34 37
REMARK SMILES IDX 35 38 57 43 58 44 59 45 60 46 61 47 62 49 66 50 67 51 68 52
REMARK SMILES IDX 69 53 70 54 71 55 2 56 1 57 3 58 4 59 5 60 6 62 7 63 63 65
REMARK SMILES IDX 64 66 65 67 40 69 41 70 42 71 44 72 43 73 45 74 46 75 47 76
REMARK SMILES IDX 55 77 56 78 48 79 49 80 50 81 54 82 51 83 53 84 52 85
REMARK H PARENT 38 5 27 10 18 17 10 22 22 31 34 39 34 40 35 41 35 42 61 48
REMARK H PARENT 5 61 65 68
REMARK Flexibility Score:  369.900
ROOT
ATOM      1  C   UNL     1      -7.663   4.426   6.262  1.00  0.00     0.117 C 
ENDROOT
BRANCH   1   2
ATOM      2  N   UNL     1      -9.050   4.610   5.831  1.00  0.00    -0.347 N 
ATOM      3  O   UNL     1      -9.394   6.681   6.758  1.00  0.00    -0.273 OA
ATOM      4  C   UNL     1      -9.777   5.766   6.037  1.00  0.00     0.243 C 
ATOM      5  H   UNL     1      -9.506   3.878   5.308  1.00  0.00     0.164 HD
BRANCH   4   6
ATOM      6  C   UNL     1     -11.193   5.733   5.407  1.00  0.00     0.171 C 
BRANCH   6   7
ATOM      7  N   UNL     1     -12.117   6.585   6.172  1.00  0.00    -0.344 N 
ATOM      8  C   UNL     1     -12.752   6.101   7.295  1.00  0.00     0.226 C 
ATOM      9  O   UNL     1     -12.603   4.953   7.695  1.00  0.00    -0.275 OA
ATOM     10  H   UNL     1     -12.317   7.518   5.834  1.00  0.00     0.164 HD
BRANCH   8  11
ATOM     11  C   UNL     1     -13.630   7.118   8.004  1.00  0.00     0.109 C 
ATOM     12  C   UNL     1     -13.298   8.529   7.518  1.00  0.00     0.021 C 
BRANCH  11  13
ATOM     13  C   UNL     1     -15.111   6.716   7.864  1.00  0.00     0.204 C 
BRANCH  13  14
ATOM     14  N   UNL     1     -15.378   5.388   8.424  1.00  0.00    -0.340 N 
ATOM     15  C   UNL     1     -16.638   4.831   8.462  1.00  0.00     0.243 C 
ATOM     16  O   UNL     1     -17.620   5.385   7.971  1.00  0.00    -0.273 OA
ATOM     17  H   UNL     1     -14.641   4.944   8.979  1.00  0.00     0.164 HD
BRANCH  15  18
ATOM     18  C   UNL     1     -16.710   3.520   9.283  1.00  0.00     0.171 C 
BRANCH  18  19
ATOM     19  N   UNL     1     -16.379   2.432   8.365  1.00  0.00    -0.343 N 
ATOM     20  C   UNL     1     -17.356   1.657   7.770  1.00  0.00     0.242 CG0
ATOM     21  O   UNL     1     -18.538   1.758   8.087  1.00  0.00    -0.273 OA
ATOM     22  H   UNL     1     -15.406   2.233   8.160  1.00  0.00     0.164 HD
ATOM     23  G   UNL     1     -16.818   0.610   6.772  1.00  0.00     0.000 G0
ENDBRANCH  18  19
BRANCH  18  24
ATOM     24  C   UNL     1     -15.739   3.569  10.469  1.00  0.00     0.038 C 
BRANCH  24  25
ATOM     25  C   UNL     1     -16.353   4.100  11.782  1.00  0.00    -0.015 C 
ATOM     26  C   UNL     1     -15.607   5.319  12.325  1.00  0.00     0.007 C 
ATOM     27  C   UNL     1     -16.358   2.988  12.834  1.00  0.00     0.007 C 
ENDBRANCH  24  25
ENDBRANCH  18  24
ENDBRANCH  15  18
ENDBRANCH  13  14
BRANCH  13  28
ATOM     28  C   UNL     1     -16.070   7.697   8.545  1.00  0.00     0.327 C 
ATOM     29  O   UNL     1     -16.741   8.555   7.992  1.00  0.00    -0.250 OA
BRANCH  28  30
ATOM     30  O   UNL     1     -16.037   7.619   9.891  1.00  0.00    -0.480 OA
ATOM     31  H   UNL     1     -15.105   7.814  10.122  1.00  0.00     0.296 HD
ENDBRANCH  28  30
ENDBRANCH  13  28
ENDBRANCH  11  13
ENDBRANCH   8  11
ENDBRANCH   6   7
BRANCH   6  32
ATOM     32  C   UNL     1     -11.105   6.193   3.947  1.00  0.00     0.037 C 
BRANCH  32  33
ATOM     33  C   UNL     1     -11.177   5.017   2.964  1.00  0.00     0.026 C 
BRANCH  33  34
ATOM     34  C   UNL     1      -9.903   4.874   2.129  1.00  0.00     0.146 C 
BRANCH  34  35
ATOM     35  N   UNL     1      -8.947   4.060   2.867  1.00  0.00    -0.254 NA
ATOM     36  C   UNL     1      -8.689   2.879   2.444  1.00  0.00     0.185 C 
ATOM     37  N   UNL     1      -7.806   2.123   3.113  1.00  0.00    -0.370 N 
ATOM     38  N   UNL     1      -9.190   2.237   1.373  1.00  0.00    -0.370 N 
ATOM     39  H   UNL     1      -7.376   2.541   3.929  1.00  0.00     0.159 HD
ATOM     40  H   UNL     1      -7.423   1.265   2.754  1.00  0.00     0.159 HD
ATOM     41  H   UNL     1      -9.013   1.257   1.224  1.00  0.00     0.159 HD
ATOM     42  H   UNL     1      -9.879   2.681   0.786  1.00  0.00     0.159 HD
ENDBRANCH  34  35
ENDBRANCH  33  34
ENDBRANCH  32  33
ENDBRANCH   6  32
ENDBRANCH   4   6
ENDBRANCH   1   2
BRANCH   1  43
ATOM     43  C   UNL     1      -7.571   4.741   7.783  1.00  0.00     0.102 C 
ATOM     44  C   UNL     1      -6.157   5.135   8.242  1.00  0.00     0.020 C 
BRANCH  43  45
ATOM     45  C   UNL     1      -8.206   3.622   8.615  1.00  0.00     0.225 C 
ATOM     46  O   UNL     1      -7.707   2.506   8.730  1.00  0.00    -0.275 OA
ATOM     47  N   UNL     1      -9.435   3.915   9.161  1.00  0.00    -0.342 N 
ATOM     48  H   UNL     1      -9.756   4.872   9.186  1.00  0.00     0.164 HD
BRANCH  47  49
ATOM     49  C   UNL     1     -10.144   2.953  10.010  1.00  0.00     0.192 C 
BRANCH  49  50
ATOM     50  C   UNL     1     -11.032   2.057   9.143  1.00  0.00     0.047 C 
BRANCH  50  51
ATOM     51  C   UNL     1     -10.693   0.569   9.306  1.00  0.00     0.103 C 
BRANCH  51  52
ATOM     52  C   UNL     1     -11.847  -0.333   8.873  1.00  0.00     0.226 C 
ATOM     53  O   UNL     1     -12.604  -0.805   9.724  1.00  0.00    -0.275 OA
BRANCH  52  54
ATOM     54  N   UNL     1     -12.020  -0.509   7.488  1.00  0.00    -0.311 N 
ATOM     55  C   UNL     1     -11.161  -1.430   6.730  1.00  0.00     0.153 C 
BRANCH  54  56
ATOM     56  C   UNL     1     -13.018   0.181   6.780  1.00  0.00     0.102 C 
ATOM     57  C   UNL     1     -12.797   1.212   5.948  1.00  0.00     0.043 C 
BRANCH  56  58
ATOM     58  C   UNL     1     -14.466  -0.238   6.877  1.00  0.00     0.268 C 
ATOM     59  O   UNL     1     -14.817  -1.373   7.172  1.00  0.00    -0.268 OA
ATOM     60  N   UNL     1     -15.343   0.799   6.666  1.00  0.00    -0.339 N 
ATOM     61  H   UNL     1     -14.972   1.707   6.415  1.00  0.00     0.164 HD
BRANCH  60  62
ATOM     62  C   UNL     1     -16.792   0.628   6.774  1.00  0.00     0.168 CG0
ATOM     63  C   UNL     1     -17.463   0.782   5.415  1.00  0.00     0.041 C 
ATOM     64  G   UNL     1     -17.359   1.648   7.782  1.00  0.00     0.000 G0
ENDBRANCH  60  62
ENDBRANCH  56  58
ENDBRANCH  54  56
ENDBRANCH  52  54
ENDBRANCH  51  52
ENDBRANCH  50  51
ENDBRANCH  49  50
BRANCH  49  65
ATOM     65  C   UNL     1     -11.010   3.660  11.065  1.00  0.00     0.326 C 
ATOM     66  O   UNL     1     -10.745   3.754  12.255  1.00  0.00    -0.250 OA
BRANCH  65  67
ATOM     67  O   UNL     1     -12.177   4.153  10.597  1.00  0.00    -0.480 OA
ATOM     68  H   UNL     1     -11.993   4.324   9.648  1.00  0.00     0.296 HD
ENDBRANCH  65  67
ENDBRANCH  49  65
ENDBRANCH  47  49
ENDBRANCH  43  45
ENDBRANCH   1  43
BRANCH   1  69
ATOM     69  C   UNL     1      -6.810   5.226   5.294  1.00  0.00    -0.001 C 
ATOM     70  C   UNL     1      -5.755   4.791   4.583  1.00  0.00     0.001 C 
BRANCH  70  71
ATOM     71  C   UNL     1      -4.952   5.567   3.636  1.00  0.00    -0.055 C 
ATOM     72  C   UNL     1      -5.102   6.909   3.638  1.00  0.00    -0.018 C 
ATOM     73  C   UNL     1      -4.011   4.815   2.732  1.00  0.00     0.044 C 
BRANCH  72  74
ATOM     74  C   UNL     1      -4.408   7.957   2.780  1.00  0.00     0.038 C 
ATOM     75  C   UNL     1      -3.092   8.317   3.481  1.00  0.00     0.015 C 
BRANCH  74  76
ATOM     76  C   UNL     1      -5.382   9.153   2.565  1.00  0.00     0.128 C 
BRANCH  76  77
ATOM     77  O   UNL     1      -4.975   9.916   1.416  1.00  0.00    -0.381 OA
ATOM     78  C   UNL     1      -4.913   9.155   0.217  1.00  0.00     0.195 C 
ENDBRANCH  76  77
BRANCH  76  79
ATOM     79  C   UNL     1      -6.876   8.746   2.516  1.00  0.00     0.068 C 
BRANCH  79  80
ATOM     80  C   UNL     1      -7.852   9.539   3.352  1.00  0.00    -0.045 A 
ATOM     81  C   UNL     1      -7.649  10.903   3.599  1.00  0.00     0.004 A 
ATOM     82  C   UNL     1      -8.968   8.909   3.922  1.00  0.00     0.004 A 
ATOM     83  C   UNL     1      -8.549  11.625   4.386  1.00  0.00     0.000 A 
ATOM     84  C   UNL     1      -9.867   9.632   4.709  1.00  0.00     0.000 A 
ATOM     85  C   UNL     1      -9.658  10.990   4.940  1.00  0.00     0.000 A 
ENDBRANCH  79  80
ENDBRANCH  76  79
ENDBRANCH  74  76
ENDBRANCH  72  74
ENDBRANCH  70  71
ENDBRANCH   1  69
TORSDOF 17
ENDMDL
MODEL 13
REMARK VINA RESULT:    -7.092      2.619      7.222
REMARK INTER + INTRA:         -29.830
REMARK INTER:                 -22.397
REMARK INTRA:                  -7.432
REMARK UNBOUND:                -8.643
REMARK SMILES C=C1C(=O)N[C@H](C)C(=O)N[C@@H](CC(C)C)C(=O)N[C@@H](C(=O)O)[C@H](C)C(=O)N[C@@H](CCCN=C(N)N)C(=O)N[C@@H](/C=C/C(C)=C/[C@H](C)[C@H](Cc2ccccc2)OC)[C@H](C)C(=O)N[C@@H](C(=O)O)CCC(=O)N1C
REMARK SMILES IDX 39 1 38 2 37 3 36 4 28 6 27 7 25 8 26 9 23 11 24 12 19 13
REMARK SMILES IDX 18 14 16 15 17 16 11 18 10 19 8 20 9 21 12 24 13 25 14 26
REMARK SMILES IDX 15 27 20 28 21 29 22 30 29 32 30 33 31 34 32 35 33 36 34 37
REMARK SMILES IDX 35 38 57 43 58 44 59 45 60 46 61 47 62 49 66 50 67 51 68 52
REMARK SMILES IDX 69 53 70 54 71 55 2 56 1 57 3 58 4 59 5 60 6 62 7 63 63 65
REMARK SMILES IDX 64 66 65 67 40 69 41 70 42 71 44 72 43 73 45 74 46 75 47 76
REMARK SMILES IDX 55 77 56 78 48 79 49 80 50 81 54 82 51 83 53 84 52 85
REMARK H PARENT 38 5 27 10 18 17 10 22 22 31 34 39 34 40 35 41 35 42 61 48
REMARK H PARENT 5 61 65 68
REMARK Flexibility Score:  369.900
ROOT
ATOM      1  C   UNL     1     -12.342   4.000   8.055  1.00  0.00     0.117 C 
ENDROOT
BRANCH   1   2
ATOM      2  N   UNL     1     -11.595   3.754   6.821  1.00  0.00    -0.347 N 
ATOM      3  O   UNL     1      -9.493   3.673   7.739  1.00  0.00    -0.273 OA
ATOM      4  C   UNL     1     -10.235   3.519   6.775  1.00  0.00     0.243 C 
ATOM      5  H   UNL     1     -12.092   3.700   5.945  1.00  0.00     0.164 HD
BRANCH   4   6
ATOM      6  C   UNL     1      -9.706   3.201   5.353  1.00  0.00     0.171 C 
BRANCH   6   7
ATOM      7  N   UNL     1      -8.234   3.227   5.334  1.00  0.00    -0.344 N 
ATOM      8  C   UNL     1      -7.553   3.619   4.202  1.00  0.00     0.226 C 
ATOM      9  O   UNL     1      -8.123   3.938   3.166  1.00  0.00    -0.275 OA
ATOM     10  H   UNL     1      -7.727   2.905   6.149  1.00  0.00     0.164 HD
BRANCH   8  11
ATOM     11  C   UNL     1      -6.043   3.644   4.359  1.00  0.00     0.109 C 
ATOM     12  C   UNL     1      -5.374   3.091   3.101  1.00  0.00     0.021 C 
BRANCH  11  13
ATOM     13  C   UNL     1      -5.585   5.058   4.768  1.00  0.00     0.204 C 
BRANCH  13  14
ATOM     14  N   UNL     1      -6.562   6.085   4.392  1.00  0.00    -0.340 N 
ATOM     15  C   UNL     1      -6.249   7.156   3.584  1.00  0.00     0.243 C 
ATOM     16  O   UNL     1      -5.141   7.294   3.070  1.00  0.00    -0.273 OA
ATOM     17  H   UNL     1      -7.449   6.113   4.903  1.00  0.00     0.164 HD
BRANCH  15  18
ATOM     18  C   UNL     1      -7.376   8.215   3.496  1.00  0.00     0.171 C 
BRANCH  18  19
ATOM     19  N   UNL     1      -6.964   9.181   2.480  1.00  0.00    -0.343 N 
ATOM     20  C   UNL     1      -6.973  10.542   2.722  1.00  0.00     0.242 CG0
ATOM     21  O   UNL     1      -7.454  11.008   3.752  1.00  0.00    -0.273 OA
ATOM     22  H   UNL     1      -6.667   8.850   1.569  1.00  0.00     0.164 HD
ATOM     23  G   UNL     1      -6.430  11.399   1.560  1.00  0.00     0.000 G0
ENDBRANCH  18  19
BRANCH  18  24
ATOM     24  C   UNL     1      -8.712   7.554   3.134  1.00  0.00     0.038 C 
BRANCH  24  25
ATOM     25  C   UNL     1      -9.761   7.560   4.265  1.00  0.00    -0.015 C 
ATOM     26  C   UNL     1     -11.021   6.774   3.900  1.00  0.00     0.007 C 
ATOM     27  C   UNL     1     -10.137   9.004   4.611  1.00  0.00     0.007 C 
ENDBRANCH  24  25
ENDBRANCH  18  24
ENDBRANCH  15  18
ENDBRANCH  13  14
BRANCH  13  28
ATOM     28  C   UNL     1      -5.333   5.200   6.272  1.00  0.00     0.327 C 
ATOM     29  O   UNL     1      -4.735   6.113   6.822  1.00  0.00    -0.250 OA
BRANCH  28  30
ATOM     30  O   UNL     1      -5.743   4.128   6.980  1.00  0.00    -0.480 OA
ATOM     31  H   UNL     1      -5.627   4.398   7.915  1.00  0.00     0.296 HD
ENDBRANCH  28  30
ENDBRANCH  13  28
ENDBRANCH  11  13
ENDBRANCH   8  11
ENDBRANCH   6   7
BRANCH   6  32
ATOM     32  C   UNL     1     -10.235   1.831   4.913  1.00  0.00     0.037 C 
BRANCH  32  33
ATOM     33  C   UNL     1     -11.211   1.939   3.733  1.00  0.00     0.026 C 
BRANCH  33  34
ATOM     34  C   UNL     1     -12.382   0.962   3.851  1.00  0.00     0.146 C 
BRANCH  34  35
ATOM     35  N   UNL     1     -11.855  -0.383   4.032  1.00  0.00    -0.254 NA
ATOM     36  C   UNL     1     -11.970  -1.223   3.072  1.00  0.00     0.185 C 
ATOM     37  N   UNL     1     -11.484  -2.464   3.226  1.00  0.00    -0.370 N 
ATOM     38  N   UNL     1     -12.533  -1.050   1.862  1.00  0.00    -0.370 N 
ATOM     39  H   UNL     1     -11.034  -2.669   4.109  1.00  0.00     0.159 HD
ATOM     40  H   UNL     1     -11.380  -3.118   2.469  1.00  0.00     0.159 HD
ATOM     41  H   UNL     1     -12.687  -1.830   1.244  1.00  0.00     0.159 HD
ATOM     42  H   UNL     1     -12.954  -0.169   1.614  1.00  0.00     0.159 HD
ENDBRANCH  34  35
ENDBRANCH  33  34
ENDBRANCH  32  33
ENDBRANCH   6  32
ENDBRANCH   4   6
ENDBRANCH   1   2
BRANCH   1  43
ATOM     43  C   UNL     1     -13.403   2.874   8.225  1.00  0.00     0.102 C 
ATOM     44  C   UNL     1     -12.795   1.509   8.589  1.00  0.00     0.020 C 
BRANCH  43  45
ATOM     45  C   UNL     1     -14.354   2.830   7.025  1.00  0.00     0.225 C 
ATOM     46  O   UNL     1     -14.091   3.343   5.941  1.00  0.00    -0.275 OA
ATOM     47  N   UNL     1     -15.581   2.253   7.262  1.00  0.00    -0.342 N 
ATOM     48  H   UNL     1     -15.723   1.706   8.100  1.00  0.00     0.164 HD
BRANCH  47  49
ATOM     49  C   UNL     1     -16.579   2.109   6.198  1.00  0.00     0.192 C 
BRANCH  49  50
ATOM     50  C   UNL     1     -17.971   1.957   6.815  1.00  0.00     0.047 C 
BRANCH  50  51
ATOM     51  C   UNL     1     -17.925   1.895   8.348  1.00  0.00     0.103 C 
BRANCH  51  52
ATOM     52  C   UNL     1     -18.311   0.516   8.879  1.00  0.00     0.226 C 
ATOM     53  O   UNL     1     -18.164  -0.476   8.163  1.00  0.00    -0.275 OA
BRANCH  52  54
ATOM     54  N   UNL     1     -18.750   0.459  10.215  1.00  0.00    -0.311 N 
ATOM     55  C   UNL     1     -17.860   0.836  11.321  1.00  0.00     0.153 C 
BRANCH  54  56
ATOM     56  C   UNL     1     -20.054   0.047  10.540  1.00  0.00     0.102 C 
ATOM     57  C   UNL     1     -21.160   0.394   9.862  1.00  0.00     0.043 C 
BRANCH  56  58
ATOM     58  C   UNL     1     -20.304  -0.891  11.697  1.00  0.00     0.268 C 
ATOM     59  O   UNL     1     -20.713  -0.514  12.787  1.00  0.00    -0.268 OA
ATOM     60  N   UNL     1     -20.089  -2.210  11.379  1.00  0.00    -0.339 N 
ATOM     61  H   UNL     1     -19.740  -2.439  10.456  1.00  0.00     0.164 HD
BRANCH  60  62
ATOM     62  C   UNL     1     -20.332  -3.291  12.334  1.00  0.00     0.168 CG0
ATOM     63  C   UNL     1     -19.112  -3.526  13.215  1.00  0.00     0.041 C 
ATOM     64  G   UNL     1     -20.712  -4.578  11.572  1.00  0.00     0.000 G0
ENDBRANCH  60  62
ENDBRANCH  56  58
ENDBRANCH  54  56
ENDBRANCH  52  54
ENDBRANCH  51  52
ENDBRANCH  50  51
ENDBRANCH  49  50
BRANCH  49  65
ATOM     65  C   UNL     1     -16.283   0.894   5.304  1.00  0.00     0.326 C 
ATOM     66  O   UNL     1     -15.801   0.938   4.182  1.00  0.00    -0.250 OA
BRANCH  65  67
ATOM     67  O   UNL     1     -16.656  -0.295   5.827  1.00  0.00    -0.480 OA
ATOM     68  H   UNL     1     -17.443  -0.544   5.297  1.00  0.00     0.296 HD
ENDBRANCH  65  67
ENDBRANCH  49  65
ENDBRANCH  47  49
ENDBRANCH  43  45
ENDBRANCH   1  43
BRANCH   1  69
ATOM     69  C   UNL     1     -12.808   5.442   7.989  1.00  0.00    -0.001 C 
ATOM     70  C   UNL     1     -12.237   6.455   7.314  1.00  0.00     0.001 C 
BRANCH  70  71
ATOM     71  C   UNL     1     -12.708   7.840   7.239  1.00  0.00    -0.055 C 
ATOM     72  C   UNL     1     -13.879   8.071   6.610  1.00  0.00    -0.018 C 
ATOM     73  C   UNL     1     -11.856   8.906   7.877  1.00  0.00     0.044 C 
BRANCH  72  74
ATOM     74  C   UNL     1     -14.608   9.388   6.385  1.00  0.00     0.038 C 
ATOM     75  C   UNL     1     -13.551  10.499   6.406  1.00  0.00     0.015 C 
BRANCH  74  76
ATOM     76  C   UNL     1     -15.727   9.532   7.458  1.00  0.00     0.128 C 
BRANCH  76  77
ATOM     77  O   UNL     1     -16.475  10.737   7.229  1.00  0.00    -0.381 OA
ATOM     78  C   UNL     1     -17.863  10.611   7.510  1.00  0.00     0.195 C 
ENDBRANCH  76  77
BRANCH  76  79
ATOM     79  C   UNL     1     -16.632   8.281   7.595  1.00  0.00     0.068 C 
BRANCH  79  80
ATOM     80  C   UNL     1     -16.258   7.248   8.630  1.00  0.00    -0.045 A 
ATOM     81  C   UNL     1     -16.706   5.924   8.523  1.00  0.00     0.004 A 
ATOM     82  C   UNL     1     -15.475   7.607   9.737  1.00  0.00     0.004 A 
ATOM     83  C   UNL     1     -16.367   4.978   9.493  1.00  0.00     0.000 A 
ATOM     84  C   UNL     1     -15.138   6.660  10.706  1.00  0.00     0.000 A 
ATOM     85  C   UNL     1     -15.582   5.346  10.583  1.00  0.00     0.000 A 
ENDBRANCH  79  80
ENDBRANCH  76  79
ENDBRANCH  74  76
ENDBRANCH  72  74
ENDBRANCH  70  71
ENDBRANCH   1  69
TORSDOF 17
ENDMDL
MODEL 14
REMARK VINA RESULT:    -7.087      2.259     11.006
REMARK INTER + INTRA:         -29.815
REMARK INTER:                 -22.054
REMARK INTRA:                  -7.761
REMARK UNBOUND:                -8.643
REMARK SMILES C=C1C(=O)N[C@H](C)C(=O)N[C@@H](CC(C)C)C(=O)N[C@@H](C(=O)O)[C@H](C)C(=O)N[C@@H](CCCN=C(N)N)C(=O)N[C@@H](/C=C/C(C)=C/[C@H](C)[C@H](Cc2ccccc2)OC)[C@H](C)C(=O)N[C@@H](C(=O)O)CCC(=O)N1C
REMARK SMILES IDX 39 1 38 2 37 3 36 4 28 6 27 7 25 8 26 9 23 11 24 12 19 13
REMARK SMILES IDX 18 14 16 15 17 16 11 18 10 19 8 20 9 21 12 24 13 25 14 26
REMARK SMILES IDX 15 27 20 28 21 29 22 30 29 32 30 33 31 34 32 35 33 36 34 37
REMARK SMILES IDX 35 38 57 43 58 44 59 45 60 46 61 47 62 49 66 50 67 51 68 52
REMARK SMILES IDX 69 53 70 54 71 55 2 56 1 57 3 58 4 59 5 60 6 62 7 63 63 65
REMARK SMILES IDX 64 66 65 67 40 69 41 70 42 71 44 72 43 73 45 74 46 75 47 76
REMARK SMILES IDX 55 77 56 78 48 79 49 80 50 81 54 82 51 83 53 84 52 85
REMARK H PARENT 38 5 27 10 18 17 10 22 22 31 34 39 34 40 35 41 35 42 61 48
REMARK H PARENT 5 61 65 68
REMARK Flexibility Score:  369.900
ROOT
ATOM      1  C   UNL     1     -11.132   6.348   7.310  1.00  0.00     0.117 C 
ENDROOT
BRANCH   1   2
ATOM      2  N   UNL     1     -11.794   5.288   8.072  1.00  0.00    -0.347 N 
ATOM      3  O   UNL     1     -12.981   6.630   9.507  1.00  0.00    -0.273 OA
ATOM      4  C   UNL     1     -12.739   5.516   9.053  1.00  0.00     0.243 C 
ATOM      5  H   UNL     1     -11.598   4.324   7.850  1.00  0.00     0.164 HD
BRANCH   4   6
ATOM      6  C   UNL     1     -13.348   4.220   9.645  1.00  0.00     0.171 C 
BRANCH   6   7
ATOM      7  N   UNL     1     -13.861   3.355   8.571  1.00  0.00    -0.344 N 
ATOM      8  C   UNL     1     -15.109   3.573   8.029  1.00  0.00     0.226 C 
ATOM      9  O   UNL     1     -15.852   4.466   8.420  1.00  0.00    -0.275 OA
ATOM     10  H   UNL     1     -13.304   2.566   8.268  1.00  0.00     0.164 HD
BRANCH   8  11
ATOM     11  C   UNL     1     -15.471   2.632   6.894  1.00  0.00     0.109 C 
ATOM     12  C   UNL     1     -14.231   2.313   6.059  1.00  0.00     0.021 C 
BRANCH  11  13
ATOM     13  C   UNL     1     -16.210   1.400   7.453  1.00  0.00     0.204 C 
BRANCH  13  14
ATOM     14  N   UNL     1     -16.928   1.705   8.695  1.00  0.00    -0.340 N 
ATOM     15  C   UNL     1     -16.727   1.007   9.866  1.00  0.00     0.243 C 
ATOM     16  O   UNL     1     -15.884   0.117   9.968  1.00  0.00    -0.273 OA
ATOM     17  H   UNL     1     -17.742   2.323   8.640  1.00  0.00     0.164 HD
BRANCH  15  18
ATOM     18  C   UNL     1     -17.740   1.365  10.981  1.00  0.00     0.171 C 
BRANCH  18  19
ATOM     19  N   UNL     1     -18.590   0.191  11.167  1.00  0.00    -0.343 N 
ATOM     20  C   UNL     1     -19.841   0.098  10.590  1.00  0.00     0.242 CG0
ATOM     21  O   UNL     1     -20.352   1.050  10.004  1.00  0.00    -0.273 OA
ATOM     22  H   UNL     1     -18.258  -0.577  11.741  1.00  0.00     0.164 HD
ATOM     23  G   UNL     1     -20.556  -1.247  10.833  1.00  0.00     0.000 G0
ENDBRANCH  18  19
BRANCH  18  24
ATOM     24  C   UNL     1     -17.009   1.741  12.276  1.00  0.00     0.038 C 
BRANCH  24  25
ATOM     25  C   UNL     1     -15.825   2.713  12.089  1.00  0.00    -0.015 C 
ATOM     26  C   UNL     1     -14.895   2.743  13.302  1.00  0.00     0.007 C 
ATOM     27  C   UNL     1     -16.355   4.122  11.811  1.00  0.00     0.007 C 
ENDBRANCH  24  25
ENDBRANCH  18  24
ENDBRANCH  15  18
ENDBRANCH  13  14
BRANCH  13  28
ATOM     28  C   UNL     1     -17.229   0.811   6.473  1.00  0.00     0.327 C 
ATOM     29  O   UNL     1     -18.410   1.112   6.389  1.00  0.00    -0.250 OA
BRANCH  28  30
ATOM     30  O   UNL     1     -16.730  -0.205   5.740  1.00  0.00    -0.480 OA
ATOM     31  H   UNL     1     -16.099  -0.651   6.342  1.00  0.00     0.296 HD
ENDBRANCH  28  30
ENDBRANCH  13  28
ENDBRANCH  11  13
ENDBRANCH   8  11
ENDBRANCH   6   7
BRANCH   6  32
ATOM     32  C   UNL     1     -12.280   3.493  10.470  1.00  0.00     0.037 C 
BRANCH  32  33
ATOM     33  C   UNL     1     -12.576   1.993  10.609  1.00  0.00     0.026 C 
BRANCH  33  34
ATOM     34  C   UNL     1     -11.644   1.131   9.757  1.00  0.00     0.146 C 
BRANCH  34  35
ATOM     35  N   UNL     1     -12.429   0.471   8.723  1.00  0.00    -0.254 NA
ATOM     36  C   UNL     1     -12.998  -0.643   9.000  1.00  0.00     0.185 C 
ATOM     37  N   UNL     1     -13.728  -1.258   8.057  1.00  0.00    -0.370 N 
ATOM     38  N   UNL     1     -12.980  -1.337  10.152  1.00  0.00    -0.370 N 
ATOM     39  H   UNL     1     -13.798  -0.791   7.161  1.00  0.00     0.159 HD
ATOM     40  H   UNL     1     -14.340  -2.033   8.244  1.00  0.00     0.159 HD
ATOM     41  H   UNL     1     -13.352  -2.271  10.204  1.00  0.00     0.159 HD
ATOM     42  H   UNL     1     -12.456  -1.000  10.945  1.00  0.00     0.159 HD
ENDBRANCH  34  35
ENDBRANCH  33  34
ENDBRANCH  32  33
ENDBRANCH   6  32
ENDBRANCH   4   6
ENDBRANCH   1   2
BRANCH   1  43
ATOM     43  C   UNL     1     -12.113   6.855   6.213  1.00  0.00     0.102 C 
ATOM     44  C   UNL     1     -11.685   6.474   4.786  1.00  0.00     0.020 C 
BRANCH  43  45
ATOM     45  C   UNL     1     -12.417   8.345   6.394  1.00  0.00     0.225 C 
ATOM     46  O   UNL     1     -12.364   8.914   7.481  1.00  0.00    -0.275 OA
ATOM     47  N   UNL     1     -12.851   9.002   5.266  1.00  0.00    -0.342 N 
ATOM     48  H   UNL     1     -12.744   8.566   4.361  1.00  0.00     0.164 HD
BRANCH  47  49
ATOM     49  C   UNL     1     -13.145  10.438   5.281  1.00  0.00     0.192 C 
BRANCH  49  50
ATOM     50  C   UNL     1     -11.899  11.214   5.716  1.00  0.00     0.047 C 
BRANCH  50  51
ATOM     51  C   UNL     1     -10.842  11.286   4.607  1.00  0.00     0.103 C 
BRANCH  51  52
ATOM     52  C   UNL     1      -9.608  10.448   4.936  1.00  0.00     0.226 C 
ATOM     53  O   UNL     1      -9.605   9.735   5.941  1.00  0.00    -0.275 OA
BRANCH  52  54
ATOM     54  N   UNL     1      -8.555  10.489   4.003  1.00  0.00    -0.311 N 
ATOM     55  C   UNL     1      -7.842  11.743   3.722  1.00  0.00     0.153 C 
BRANCH  54  56
ATOM     56  C   UNL     1      -8.143   9.338   3.311  1.00  0.00     0.102 C 
ATOM     57  C   UNL     1      -8.722   8.130   3.417  1.00  0.00     0.043 C 
BRANCH  56  58
ATOM     58  C   UNL     1      -7.000   9.393   2.325  1.00  0.00     0.268 C 
ATOM     59  O   UNL     1      -7.105   9.873   1.205  1.00  0.00    -0.268 OA
ATOM     60  N   UNL     1      -5.820   8.912   2.839  1.00  0.00    -0.339 N 
ATOM     61  H   UNL     1      -5.819   8.521   3.774  1.00  0.00     0.164 HD
BRANCH  60  62
ATOM     62  C   UNL     1      -4.573   8.929   2.076  1.00  0.00     0.168 CG0
ATOM     63  C   UNL     1      -3.373   8.686   2.982  1.00  0.00     0.041 C 
ATOM     64  G   UNL     1      -4.436  10.279   1.340  1.00  0.00     0.000 G0
ENDBRANCH  60  62
ENDBRANCH  56  58
ENDBRANCH  54  56
ENDBRANCH  52  54
ENDBRANCH  51  52
ENDBRANCH  50  51
ENDBRANCH  49  50
BRANCH  49  65
ATOM     65  C   UNL     1     -14.308  10.769   6.230  1.00  0.00     0.326 C 
ATOM     66  O   UNL     1     -14.440  11.810   6.857  1.00  0.00    -0.250 OA
BRANCH  65  67
ATOM     67  O   UNL     1     -15.203   9.770   6.394  1.00  0.00    -0.480 OA
ATOM     68  H   UNL     1     -14.711   9.100   6.915  1.00  0.00     0.296 HD
ENDBRANCH  65  67
ENDBRANCH  49  65
ENDBRANCH  47  49
ENDBRANCH  43  45
ENDBRANCH   1  43
BRANCH   1  69
ATOM     69  C   UNL     1      -9.786   5.789   6.888  1.00  0.00    -0.001 C 
ATOM     70  C   UNL     1      -8.814   5.309   7.684  1.00  0.00     0.001 C 
BRANCH  70  71
ATOM     71  C   UNL     1      -7.527   4.752   7.264  1.00  0.00    -0.055 C 
ATOM     72  C   UNL     1      -6.980   5.227   6.125  1.00  0.00    -0.018 C 
ATOM     73  C   UNL     1      -6.900   3.696   8.136  1.00  0.00     0.044 C 
BRANCH  72  74
ATOM     74  C   UNL     1      -5.669   4.844   5.454  1.00  0.00     0.038 C 
ATOM     75  C   UNL     1      -4.821   6.118   5.356  1.00  0.00     0.015 C 
BRANCH  74  76
ATOM     76  C   UNL     1      -5.984   4.163   4.089  1.00  0.00     0.128 C 
BRANCH  76  77
ATOM     77  O   UNL     1      -4.787   4.068   3.299  1.00  0.00    -0.381 OA
ATOM     78  C   UNL     1      -4.355   2.732   3.076  1.00  0.00     0.195 C 
ENDBRANCH  76  77
BRANCH  76  79
ATOM     79  C   UNL     1      -6.727   2.810   4.217  1.00  0.00     0.068 C 
BRANCH  79  80
ATOM     80  C   UNL     1      -8.237   2.830   4.236  1.00  0.00    -0.045 A 
ATOM     81  C   UNL     1      -8.958   2.063   5.161  1.00  0.00     0.004 A 
ATOM     82  C   UNL     1      -8.945   3.602   3.303  1.00  0.00     0.004 A 
ATOM     83  C   UNL     1     -10.354   2.077   5.163  1.00  0.00     0.000 A 
ATOM     84  C   UNL     1     -10.341   3.614   3.305  1.00  0.00     0.000 A 
ATOM     85  C   UNL     1     -11.045   2.854   4.236  1.00  0.00     0.000 A 
ENDBRANCH  79  80
ENDBRANCH  76  79
ENDBRANCH  74  76
ENDBRANCH  72  74
ENDBRANCH  70  71
ENDBRANCH   1  69
TORSDOF 17
ENDMDL
MODEL 15
REMARK VINA RESULT:    -7.073      3.785     11.906
REMARK INTER + INTRA:         -29.773
REMARK INTER:                 -21.413
REMARK INTRA:                  -8.360
REMARK UNBOUND:                -8.643
REMARK SMILES C=C1C(=O)N[C@H](C)C(=O)N[C@@H](CC(C)C)C(=O)N[C@@H](C(=O)O)[C@H](C)C(=O)N[C@@H](CCCN=C(N)N)C(=O)N[C@@H](/C=C/C(C)=C/[C@H](C)[C@H](Cc2ccccc2)OC)[C@H](C)C(=O)N[C@@H](C(=O)O)CCC(=O)N1C
REMARK SMILES IDX 39 1 38 2 37 3 36 4 28 6 27 7 25 8 26 9 23 11 24 12 19 13
REMARK SMILES IDX 18 14 16 15 17 16 11 18 10 19 8 20 9 21 12 24 13 25 14 26
REMARK SMILES IDX 15 27 20 28 21 29 22 30 29 32 30 33 31 34 32 35 33 36 34 37
REMARK SMILES IDX 35 38 57 43 58 44 59 45 60 46 61 47 62 49 66 50 67 51 68 52
REMARK SMILES IDX 69 53 70 54 71 55 2 56 1 57 3 58 4 59 5 60 6 62 7 63 63 65
REMARK SMILES IDX 64 66 65 67 40 69 41 70 42 71 44 72 43 73 45 74 46 75 47 76
REMARK SMILES IDX 55 77 56 78 48 79 49 80 50 81 54 82 51 83 53 84 52 85
REMARK H PARENT 38 5 27 10 18 17 10 22 22 31 34 39 34 40 35 41 35 42 61 48
REMARK H PARENT 5 61 65 68
REMARK Flexibility Score:  369.900
ROOT
ATOM      1  C   UNL     1     -12.078   3.554   7.595  1.00  0.00     0.117 C 
ENDROOT
BRANCH   1   2
ATOM      2  N   UNL     1     -11.224   3.409   8.775  1.00  0.00    -0.347 N 
ATOM      3  O   UNL     1     -12.413   1.745   9.818  1.00  0.00    -0.273 OA
ATOM      4  C   UNL     1     -11.411   2.449   9.751  1.00  0.00     0.243 C 
ATOM      5  H   UNL     1     -10.416   4.004   8.877  1.00  0.00     0.164 HD
BRANCH   4   6
ATOM      6  C   UNL     1     -10.316   2.455  10.848  1.00  0.00     0.171 C 
BRANCH   6   7
ATOM      7  N   UNL     1     -10.909   2.744  12.164  1.00  0.00    -0.344 N 
ATOM      8  C   UNL     1     -11.337   4.016  12.478  1.00  0.00     0.226 C 
ATOM      9  O   UNL     1     -11.228   4.959  11.704  1.00  0.00    -0.275 OA
ATOM     10  H   UNL     1     -10.953   2.005  12.855  1.00  0.00     0.164 HD
BRANCH   8  11
ATOM     11  C   UNL     1     -11.974   4.140  13.851  1.00  0.00     0.109 C 
ATOM     12  C   UNL     1     -11.124   5.043  14.745  1.00  0.00     0.021 C 
BRANCH  11  13
ATOM     13  C   UNL     1     -13.446   4.572  13.705  1.00  0.00     0.204 C 
BRANCH  13  14
ATOM     14  N   UNL     1     -14.092   3.950  12.545  1.00  0.00    -0.340 N 
ATOM     15  C   UNL     1     -15.164   4.518  11.891  1.00  0.00     0.243 C 
ATOM     16  O   UNL     1     -15.617   5.619  12.198  1.00  0.00    -0.273 OA
ATOM     17  H   UNL     1     -13.866   2.974  12.336  1.00  0.00     0.164 HD
BRANCH  15  18
ATOM     18  C   UNL     1     -15.807   3.586  10.834  1.00  0.00     0.171 C 
BRANCH  18  19
ATOM     19  N   UNL     1     -16.733   2.713  11.554  1.00  0.00    -0.343 N 
ATOM     20  C   UNL     1     -16.336   1.491  12.061  1.00  0.00     0.242 CG0
ATOM     21  O   UNL     1     -15.227   1.023  11.818  1.00  0.00    -0.273 OA
ATOM     22  H   UNL     1     -17.695   3.006  11.681  1.00  0.00     0.164 HD
ATOM     23  G   UNL     1     -17.429   0.748  12.857  1.00  0.00     0.000 G0
ENDBRANCH  18  19
BRANCH  18  24
ATOM     24  C   UNL     1     -16.530   4.407   9.758  1.00  0.00     0.038 C 
BRANCH  24  25
ATOM     25  C   UNL     1     -16.285   3.929   8.311  1.00  0.00    -0.015 C 
ATOM     26  C   UNL     1     -17.571   3.876   7.487  1.00  0.00     0.007 C 
ATOM     27  C   UNL     1     -15.627   2.547   8.330  1.00  0.00     0.007 C 
ENDBRANCH  24  25
ENDBRANCH  18  24
ENDBRANCH  15  18
ENDBRANCH  13  14
BRANCH  13  28
ATOM     28  C   UNL     1     -14.299   4.237  14.933  1.00  0.00     0.327 C 
ATOM     29  O   UNL     1     -14.569   4.993  15.854  1.00  0.00    -0.250 OA
BRANCH  28  30
ATOM     30  O   UNL     1     -14.660   2.939  14.987  1.00  0.00    -0.480 OA
ATOM     31  H   UNL     1     -14.482   2.677  15.914  1.00  0.00     0.296 HD
ENDBRANCH  28  30
ENDBRANCH  13  28
ENDBRANCH  11  13
ENDBRANCH   8  11
ENDBRANCH   6   7
BRANCH   6  32
ATOM     32  C   UNL     1      -9.603   1.099  10.855  1.00  0.00     0.037 C 
BRANCH  32  33
ATOM     33  C   UNL     1      -8.991   0.759   9.489  1.00  0.00     0.026 C 
BRANCH  33  34
ATOM     34  C   UNL     1      -9.463  -0.595   8.957  1.00  0.00     0.146 C 
BRANCH  34  35
ATOM     35  N   UNL     1     -10.476  -1.127   9.858  1.00  0.00    -0.254 NA
ATOM     36  C   UNL     1     -11.665  -1.299   9.413  1.00  0.00     0.185 C 
ATOM     37  N   UNL     1     -12.605  -1.793  10.233  1.00  0.00    -0.370 N 
ATOM     38  N   UNL     1     -12.151  -1.050   8.184  1.00  0.00    -0.370 N 
ATOM     39  H   UNL     1     -12.313  -2.016  11.176  1.00  0.00     0.159 HD
ATOM     40  H   UNL     1     -13.503  -2.117   9.918  1.00  0.00     0.159 HD
ATOM     41  H   UNL     1     -13.139  -1.096   7.995  1.00  0.00     0.159 HD
ATOM     42  H   UNL     1     -11.558  -0.661   7.467  1.00  0.00     0.159 HD
ENDBRANCH  34  35
ENDBRANCH  33  34
ENDBRANCH  32  33
ENDBRANCH   6  32
ENDBRANCH   4   6
ENDBRANCH   1   2
BRANCH   1  43
ATOM     43  C   UNL     1     -11.208   3.333   6.324  1.00  0.00     0.102 C 
ATOM     44  C   UNL     1     -11.064   1.853   5.932  1.00  0.00     0.020 C 
BRANCH  43  45
ATOM     45  C   UNL     1      -9.875   4.079   6.433  1.00  0.00     0.225 C 
ATOM     46  O   UNL     1      -9.682   4.995   7.228  1.00  0.00    -0.275 OA
ATOM     47  N   UNL     1      -8.919   3.723   5.510  1.00  0.00    -0.342 N 
ATOM     48  H   UNL     1      -9.036   2.876   4.971  1.00  0.00     0.164 HD
BRANCH  47  49
ATOM     49  C   UNL     1      -7.584   4.327   5.517  1.00  0.00     0.192 C 
BRANCH  49  50
ATOM     50  C   UNL     1      -7.414   5.214   4.281  1.00  0.00     0.047 C 
BRANCH  50  51
ATOM     51  C   UNL     1      -6.704   6.536   4.605  1.00  0.00     0.103 C 
BRANCH  51  52
ATOM     52  C   UNL     1      -5.199   6.349   4.784  1.00  0.00     0.226 C 
ATOM     53  O   UNL     1      -4.729   6.226   5.917  1.00  0.00    -0.275 OA
BRANCH  52  54
ATOM     54  N   UNL     1      -4.435   6.253   3.606  1.00  0.00    -0.311 N 
ATOM     55  C   UNL     1      -4.234   4.960   2.938  1.00  0.00     0.153 C 
BRANCH  54  56
ATOM     56  C   UNL     1      -3.843   7.385   3.023  1.00  0.00     0.102 C 
ATOM     57  C   UNL     1      -3.230   8.368   3.702  1.00  0.00     0.043 C 
BRANCH  56  58
ATOM     58  C   UNL     1      -3.815   7.560   1.522  1.00  0.00     0.268 C 
ATOM     59  O   UNL     1      -4.338   8.505   0.948  1.00  0.00    -0.268 OA
ATOM     60  N   UNL     1      -3.089   6.586   0.879  1.00  0.00    -0.339 N 
ATOM     61  H   UNL     1      -2.696   5.830   1.426  1.00  0.00     0.164 HD
BRANCH  60  62
ATOM     62  C   UNL     1      -2.881   6.598  -0.569  1.00  0.00     0.168 CG0
ATOM     63  C   UNL     1      -2.105   5.368  -1.020  1.00  0.00     0.041 C 
ATOM     64  G   UNL     1      -2.141   7.890  -0.974  1.00  0.00     0.000 G0
ENDBRANCH  60  62
ENDBRANCH  56  58
ENDBRANCH  54  56
ENDBRANCH  52  54
ENDBRANCH  51  52
ENDBRANCH  50  51
ENDBRANCH  49  50
BRANCH  49  65
ATOM     65  C   UNL     1      -6.478   3.260   5.534  1.00  0.00     0.326 C 
ATOM     66  O   UNL     1      -6.448   2.257   4.836  1.00  0.00    -0.250 OA
BRANCH  65  67
ATOM     67  O   UNL     1      -5.509   3.466   6.453  1.00  0.00    -0.480 OA
ATOM     68  H   UNL     1      -5.829   2.976   7.240  1.00  0.00     0.296 HD
ENDBRANCH  65  67
ENDBRANCH  49  65
ENDBRANCH  47  49
ENDBRANCH  43  45
ENDBRANCH   1  43
BRANCH   1  69
ATOM     69  C   UNL     1     -12.811   4.873   7.762  1.00  0.00    -0.001 C 
ATOM     70  C   UNL     1     -13.076   5.521   8.910  1.00  0.00     0.001 C 
BRANCH  70  71
ATOM     71  C   UNL     1     -13.765   6.804   9.057  1.00  0.00    -0.055 C 
ATOM     72  C   UNL     1     -14.731   7.104   8.163  1.00  0.00    -0.018 C 
ATOM     73  C   UNL     1     -13.355   7.696  10.200  1.00  0.00     0.044 C 
BRANCH  72  74
ATOM     74  C   UNL     1     -15.606   8.345   8.070  1.00  0.00     0.038 C 
ATOM     75  C   UNL     1     -17.065   7.877   8.135  1.00  0.00     0.015 C 
BRANCH  74  76
ATOM     76  C   UNL     1     -15.229   9.129   6.778  1.00  0.00     0.128 C 
BRANCH  76  77
ATOM     77  O   UNL     1     -16.311   9.994   6.395  1.00  0.00    -0.381 OA
ATOM     78  C   UNL     1     -16.066  11.368   6.665  1.00  0.00     0.195 C 
ENDBRANCH  76  77
BRANCH  76  79
ATOM     79  C   UNL     1     -13.871   9.870   6.865  1.00  0.00     0.068 C 
BRANCH  79  80
ATOM     80  C   UNL     1     -12.627   9.116   6.460  1.00  0.00    -0.045 A 
ATOM     81  C   UNL     1     -12.628   8.268   5.345  1.00  0.00     0.004 A 
ATOM     82  C   UNL     1     -11.451   9.234   7.216  1.00  0.00     0.004 A 
ATOM     83  C   UNL     1     -11.477   7.563   4.985  1.00  0.00     0.000 A 
ATOM     84  C   UNL     1     -10.301   8.529   6.856  1.00  0.00     0.000 A 
ATOM     85  C   UNL     1     -10.314   7.695   5.740  1.00  0.00     0.000 A 
ENDBRANCH  79  80
ENDBRANCH  76  79
ENDBRANCH  74  76
ENDBRANCH  72  74
ENDBRANCH  70  71
ENDBRANCH   1  69
TORSDOF 17
ENDMDL
MODEL 16
REMARK VINA RESULT:    -7.069      2.240      3.300
REMARK INTER + INTRA:         -29.762
REMARK INTER:                 -23.196
REMARK INTRA:                  -6.566
REMARK UNBOUND:                -8.643
REMARK SMILES C=C1C(=O)N[C@H](C)C(=O)N[C@@H](CC(C)C)C(=O)N[C@@H](C(=O)O)[C@H](C)C(=O)N[C@@H](CCCN=C(N)N)C(=O)N[C@@H](/C=C/C(C)=C/[C@H](C)[C@H](Cc2ccccc2)OC)[C@H](C)C(=O)N[C@@H](C(=O)O)CCC(=O)N1C
REMARK SMILES IDX 39 1 38 2 37 3 36 4 28 6 27 7 25 8 26 9 23 11 24 12 19 13
REMARK SMILES IDX 18 14 16 15 17 16 11 18 10 19 8 20 9 21 12 24 13 25 14 26
REMARK SMILES IDX 15 27 20 28 21 29 22 30 29 32 30 33 31 34 32 35 33 36 34 37
REMARK SMILES IDX 35 38 57 43 58 44 59 45 60 46 61 47 62 49 66 50 67 51 68 52
REMARK SMILES IDX 69 53 70 54 71 55 2 56 1 57 3 58 4 59 5 60 6 62 7 63 63 65
REMARK SMILES IDX 64 66 65 67 40 69 41 70 42 71 44 72 43 73 45 74 46 75 47 76
REMARK SMILES IDX 55 77 56 78 48 79 49 80 50 81 54 82 51 83 53 84 52 85
REMARK H PARENT 38 5 27 10 18 17 10 22 22 31 34 39 34 40 35 41 35 42 61 48
REMARK H PARENT 5 61 65 68
REMARK Flexibility Score:  369.900
ROOT
ATOM      1  C   UNL     1     -11.275   1.918   6.017  1.00  0.00     0.117 C 
ENDROOT
BRANCH   1   2
ATOM      2  N   UNL     1     -11.239   3.085   6.900  1.00  0.00    -0.347 N 
ATOM      3  O   UNL     1     -13.231   4.026   6.254  1.00  0.00    -0.273 OA
ATOM      4  C   UNL     1     -12.268   4.000   7.013  1.00  0.00     0.243 C 
ATOM      5  H   UNL     1     -10.446   3.221   7.508  1.00  0.00     0.164 HD
BRANCH   4   6
ATOM      6  C   UNL     1     -12.015   5.094   8.082  1.00  0.00     0.171 C 
BRANCH   6   7
ATOM      7  N   UNL     1     -12.484   6.402   7.600  1.00  0.00    -0.344 N 
ATOM      8  C   UNL     1     -11.604   7.299   7.034  1.00  0.00     0.226 C 
ATOM      9  O   UNL     1     -10.406   7.069   6.924  1.00  0.00    -0.275 OA
ATOM     10  H   UNL     1     -13.455   6.656   7.735  1.00  0.00     0.164 HD
BRANCH   8  11
ATOM     11  C   UNL     1     -12.251   8.581   6.537  1.00  0.00     0.109 C 
ATOM     12  C   UNL     1     -13.072   9.223   7.655  1.00  0.00     0.021 C 
BRANCH  11  13
ATOM     13  C   UNL     1     -11.180   9.497   5.912  1.00  0.00     0.204 C 
BRANCH  13  14
ATOM     14  N   UNL     1     -10.465   8.839   4.813  1.00  0.00    -0.340 N 
ATOM     15  C   UNL     1      -9.159   9.135   4.488  1.00  0.00     0.243 C 
ATOM     16  O   UNL     1      -8.480   9.930   5.136  1.00  0.00    -0.273 OA
ATOM     17  H   UNL     1     -11.011   8.287   4.147  1.00  0.00     0.164 HD
BRANCH  15  18
ATOM     18  C   UNL     1      -8.684   8.473   3.171  1.00  0.00     0.171 C 
BRANCH  18  19
ATOM     19  N   UNL     1      -7.250   8.734   3.064  1.00  0.00    -0.343 N 
ATOM     20  C   UNL     1      -6.754   9.785   2.317  1.00  0.00     0.242 CG0
ATOM     21  O   UNL     1      -7.485  10.467   1.602  1.00  0.00    -0.273 OA
ATOM     22  H   UNL     1      -6.597   8.126   3.544  1.00  0.00     0.164 HD
ATOM     23  G   UNL     1      -5.222   9.949   2.387  1.00  0.00     0.000 G0
ENDBRANCH  18  19
BRANCH  18  24
ATOM     24  C   UNL     1      -8.982   6.968   3.183  1.00  0.00     0.038 C 
BRANCH  24  25
ATOM     25  C   UNL     1     -10.296   6.566   2.480  1.00  0.00    -0.015 C 
ATOM     26  C   UNL     1     -11.234   5.780   3.396  1.00  0.00     0.007 C 
ATOM     27  C   UNL     1      -9.979   5.737   1.233  1.00  0.00     0.007 C 
ENDBRANCH  24  25
ENDBRANCH  18  24
ENDBRANCH  15  18
ENDBRANCH  13  14
BRANCH  13  28
ATOM     28  C   UNL     1     -11.752  10.806   5.361  1.00  0.00     0.327 C 
ATOM     29  O   UNL     1     -12.910  11.005   5.027  1.00  0.00    -0.250 OA
BRANCH  28  30
ATOM     30  O   UNL     1     -10.811  11.749   5.152  1.00  0.00    -0.480 OA
ATOM     31  H   UNL     1     -10.347  11.821   6.012  1.00  0.00     0.296 HD
ENDBRANCH  28  30
ENDBRANCH  13  28
ENDBRANCH  11  13
ENDBRANCH   8  11
ENDBRANCH   6   7
BRANCH   6  32
ATOM     32  C   UNL     1     -12.726   4.701   9.381  1.00  0.00     0.037 C 
BRANCH  32  33
ATOM     33  C   UNL     1     -13.140   5.927  10.208  1.00  0.00     0.026 C 
BRANCH  33  34
ATOM     34  C   UNL     1     -14.648   5.981  10.460  1.00  0.00     0.146 C 
BRANCH  34  35
ATOM     35  N   UNL     1     -15.165   7.241   9.947  1.00  0.00    -0.254 NA
ATOM     36  C   UNL     1     -16.165   7.214   9.146  1.00  0.00     0.185 C 
ATOM     37  N   UNL     1     -16.653   8.370   8.671  1.00  0.00    -0.370 N 
ATOM     38  N   UNL     1     -16.844   6.152   8.678  1.00  0.00    -0.370 N 
ATOM     39  H   UNL     1     -16.200   9.219   8.986  1.00  0.00     0.159 HD
ATOM     40  H   UNL     1     -17.530   8.446   8.185  1.00  0.00     0.159 HD
ATOM     41  H   UNL     1     -17.525   6.252   7.943  1.00  0.00     0.159 HD
ATOM     42  H   UNL     1     -16.576   5.216   8.940  1.00  0.00     0.159 HD
ENDBRANCH  34  35
ENDBRANCH  33  34
ENDBRANCH  32  33
ENDBRANCH   6  32
ENDBRANCH   4   6
ENDBRANCH   1   2
BRANCH   1  43
ATOM     43  C   UNL     1     -11.402   0.638   6.893  1.00  0.00     0.102 C 
ATOM     44  C   UNL     1     -10.716  -0.594   6.279  1.00  0.00     0.020 C 
BRANCH  43  45
ATOM     45  C   UNL     1     -12.856   0.398   7.308  1.00  0.00     0.225 C 
ATOM     46  O   UNL     1     -13.717  -0.008   6.532  1.00  0.00    -0.275 OA
ATOM     47  N   UNL     1     -13.171   0.757   8.599  1.00  0.00    -0.342 N 
ATOM     48  H   UNL     1     -12.431   0.942   9.261  1.00  0.00     0.164 HD
BRANCH  47  49
ATOM     49  C   UNL     1     -14.516   0.551   9.145  1.00  0.00     0.192 C 
BRANCH  49  50
ATOM     50  C   UNL     1     -15.178   1.906   9.407  1.00  0.00     0.047 C 
BRANCH  50  51
ATOM     51  C   UNL     1     -16.006   2.391   8.209  1.00  0.00     0.103 C 
BRANCH  51  52
ATOM     52  C   UNL     1     -17.497   2.460   8.532  1.00  0.00     0.226 C 
ATOM     53  O   UNL     1     -18.028   3.554   8.733  1.00  0.00    -0.275 OA
BRANCH  52  54
ATOM     54  N   UNL     1     -18.202   1.242   8.504  1.00  0.00    -0.311 N 
ATOM     55  C   UNL     1     -17.802   0.158   7.598  1.00  0.00     0.153 C 
BRANCH  54  56
ATOM     56  C   UNL     1     -19.306   1.016   9.342  1.00  0.00     0.102 C 
ATOM     57  C   UNL     1     -20.362   1.837   9.461  1.00  0.00     0.043 C 
BRANCH  56  58
ATOM     58  C   UNL     1     -19.405  -0.244  10.170  1.00  0.00     0.268 C 
ATOM     59  O   UNL     1     -18.620  -0.519  11.067  1.00  0.00    -0.268 OA
ATOM     60  N   UNL     1     -20.502  -1.012   9.857  1.00  0.00    -0.339 N 
ATOM     61  H   UNL     1     -21.099  -0.719   9.092  1.00  0.00     0.164 HD
BRANCH  60  62
ATOM     62  C   UNL     1     -20.823  -2.242  10.578  1.00  0.00     0.168 CG0
ATOM     63  C   UNL     1     -20.481  -3.471   9.744  1.00  0.00     0.041 C 
ATOM     64  G   UNL     1     -22.317  -2.241  10.962  1.00  0.00     0.000 G0
ENDBRANCH  60  62
ENDBRANCH  56  58
ENDBRANCH  54  56
ENDBRANCH  52  54
ENDBRANCH  51  52
ENDBRANCH  50  51
ENDBRANCH  49  50
BRANCH  49  65
ATOM     65  C   UNL     1     -14.480  -0.258  10.451  1.00  0.00     0.326 C 
ATOM     66  O   UNL     1     -15.318  -0.212  11.339  1.00  0.00    -0.250 OA
BRANCH  65  67
ATOM     67  O   UNL     1     -13.380  -1.028  10.606  1.00  0.00    -0.480 OA
ATOM     68  H   UNL     1     -13.703  -1.788  11.137  1.00  0.00     0.296 HD
ENDBRANCH  65  67
ENDBRANCH  49  65
ENDBRANCH  47  49
ENDBRANCH  43  45
ENDBRANCH   1  43
BRANCH   1  69
ATOM     69  C   UNL     1     -10.083   2.054   5.087  1.00  0.00    -0.001 C 
ATOM     70  C   UNL     1     -10.102   2.341   3.773  1.00  0.00     0.001 C 
BRANCH  70  71
ATOM     71  C   UNL     1      -8.944   2.491   2.889  1.00  0.00    -0.055 C 
ATOM     72  C   UNL     1      -7.728   2.617   3.463  1.00  0.00    -0.018 C 
ATOM     73  C   UNL     1      -9.189   2.486   1.403  1.00  0.00     0.044 C 
BRANCH  72  74
ATOM     74  C   UNL     1      -6.366   2.783   2.806  1.00  0.00     0.038 C 
ATOM     75  C   UNL     1      -5.764   1.381   2.652  1.00  0.00     0.015 C 
BRANCH  74  76
ATOM     76  C   UNL     1      -5.514   3.768   3.660  1.00  0.00     0.128 C 
BRANCH  76  77
ATOM     77  O   UNL     1      -5.525   3.359   5.038  1.00  0.00    -0.381 OA
ATOM     78  C   UNL     1      -5.093   4.371   5.938  1.00  0.00     0.195 C 
ENDBRANCH  76  77
BRANCH  76  79
ATOM     79  C   UNL     1      -4.083   3.999   3.114  1.00  0.00     0.068 C 
BRANCH  79  80
ATOM     80  C   UNL     1      -3.785   5.320   2.447  1.00  0.00    -0.045 A 
ATOM     81  C   UNL     1      -3.200   5.371   1.175  1.00  0.00     0.004 A 
ATOM     82  C   UNL     1      -4.066   6.525   3.108  1.00  0.00     0.004 A 
ATOM     83  C   UNL     1      -2.915   6.597   0.570  1.00  0.00     0.000 A 
ATOM     84  C   UNL     1      -3.780   7.751   2.503  1.00  0.00     0.000 A 
ATOM     85  C   UNL     1      -3.206   7.787   1.234  1.00  0.00     0.000 A 
ENDBRANCH  79  80
ENDBRANCH  76  79
ENDBRANCH  74  76
ENDBRANCH  72  74
ENDBRANCH  70  71
ENDBRANCH   1  69
TORSDOF 17
ENDMDL
MODEL 17
REMARK VINA RESULT:    -7.054      2.475     11.426
REMARK INTER + INTRA:         -29.718
REMARK INTER:                 -22.434
REMARK INTRA:                  -7.284
REMARK UNBOUND:                -8.643
REMARK SMILES C=C1C(=O)N[C@H](C)C(=O)N[C@@H](CC(C)C)C(=O)N[C@@H](C(=O)O)[C@H](C)C(=O)N[C@@H](CCCN=C(N)N)C(=O)N[C@@H](/C=C/C(C)=C/[C@H](C)[C@H](Cc2ccccc2)OC)[C@H](C)C(=O)N[C@@H](C(=O)O)CCC(=O)N1C
REMARK SMILES IDX 39 1 38 2 37 3 36 4 28 6 27 7 25 8 26 9 23 11 24 12 19 13
REMARK SMILES IDX 18 14 16 15 17 16 11 18 10 19 8 20 9 21 12 24 13 25 14 26
REMARK SMILES IDX 15 27 20 28 21 29 22 30 29 32 30 33 31 34 32 35 33 36 34 37
REMARK SMILES IDX 35 38 57 43 58 44 59 45 60 46 61 47 62 49 66 50 67 51 68 52
REMARK SMILES IDX 69 53 70 54 71 55 2 56 1 57 3 58 4 59 5 60 6 62 7 63 63 65
REMARK SMILES IDX 64 66 65 67 40 69 41 70 42 71 44 72 43 73 45 74 46 75 47 76
REMARK SMILES IDX 55 77 56 78 48 79 49 80 50 81 54 82 51 83 53 84 52 85
REMARK H PARENT 38 5 27 10 18 17 10 22 22 31 34 39 34 40 35 41 35 42 61 48
REMARK H PARENT 5 61 65 68
REMARK Flexibility Score:  369.900
ROOT
ATOM      1  C   UNL     1     -12.228   4.694   9.633  1.00  0.00     0.117 C 
ENDROOT
BRANCH   1   2
ATOM      2  N   UNL     1     -13.209   3.875   8.920  1.00  0.00    -0.347 N 
ATOM      3  O   UNL     1     -13.012   1.973  10.190  1.00  0.00    -0.273 OA
ATOM      4  C   UNL     1     -13.590   2.607   9.313  1.00  0.00     0.243 C 
ATOM      5  H   UNL     1     -13.685   4.260   8.118  1.00  0.00     0.164 HD
BRANCH   4   6
ATOM      6  C   UNL     1     -14.709   1.991   8.435  1.00  0.00     0.171 C 
BRANCH   6   7
ATOM      7  N   UNL     1     -16.032   2.277   9.013  1.00  0.00    -0.344 N 
ATOM      8  C   UNL     1     -16.998   1.296   9.074  1.00  0.00     0.226 C 
ATOM      9  O   UNL     1     -16.819   0.165   8.639  1.00  0.00    -0.275 OA
ATOM     10  H   UNL     1     -16.240   3.218   9.321  1.00  0.00     0.164 HD
BRANCH   8  11
ATOM     11  C   UNL     1     -18.288   1.731   9.747  1.00  0.00     0.109 C 
ATOM     12  C   UNL     1     -19.433   1.740   8.733  1.00  0.00     0.021 C 
BRANCH  11  13
ATOM     13  C   UNL     1     -18.539   0.869  11.000  1.00  0.00     0.204 C 
BRANCH  13  14
ATOM     14  N   UNL     1     -19.072  -0.455  10.661  1.00  0.00    -0.340 N 
ATOM     15  C   UNL     1     -20.321  -0.882  11.057  1.00  0.00     0.243 C 
ATOM     16  O   UNL     1     -21.103  -0.159  11.671  1.00  0.00    -0.273 OA
ATOM     17  H   UNL     1     -18.423  -1.153  10.288  1.00  0.00     0.164 HD
BRANCH  15  18
ATOM     18  C   UNL     1     -20.583  -2.381  10.765  1.00  0.00     0.171 C 
BRANCH  18  19
ATOM     19  N   UNL     1     -20.794  -3.028  12.059  1.00  0.00    -0.343 N 
ATOM     20  C   UNL     1     -19.768  -3.186  12.970  1.00  0.00     0.242 CG0
ATOM     21  O   UNL     1     -18.605  -2.910  12.684  1.00  0.00    -0.273 OA
ATOM     22  H   UNL     1     -21.715  -3.378  12.295  1.00  0.00     0.164 HD
ATOM     23  G   UNL     1     -20.198  -3.819  14.309  1.00  0.00     0.000 G0
ENDBRANCH  18  19
BRANCH  18  24
ATOM     24  C   UNL     1     -21.800  -2.549   9.848  1.00  0.00     0.038 C 
BRANCH  24  25
ATOM     25  C   UNL     1     -21.585  -3.513   8.662  1.00  0.00    -0.015 C 
ATOM     26  C   UNL     1     -22.439  -4.776   8.773  1.00  0.00     0.007 C 
ATOM     27  C   UNL     1     -20.106  -3.897   8.573  1.00  0.00     0.007 C 
ENDBRANCH  24  25
ENDBRANCH  18  24
ENDBRANCH  15  18
ENDBRANCH  13  14
BRANCH  13  28
ATOM     28  C   UNL     1     -17.280   0.649  11.843  1.00  0.00     0.327 C 
ATOM     29  O   UNL     1     -16.480   1.506  12.184  1.00  0.00    -0.250 OA
BRANCH  28  30
ATOM     30  O   UNL     1     -17.040  -0.652  12.106  1.00  0.00    -0.480 OA
ATOM     31  H   UNL     1     -17.928  -1.033  12.268  1.00  0.00     0.296 HD
ENDBRANCH  28  30
ENDBRANCH  13  28
ENDBRANCH  11  13
ENDBRANCH   8  11
ENDBRANCH   6   7
BRANCH   6  32
ATOM     32  C   UNL     1     -14.599   2.554   7.013  1.00  0.00     0.037 C 
BRANCH  32  33
ATOM     33  C   UNL     1     -14.532   1.444   5.955  1.00  0.00     0.026 C 
BRANCH  33  34
ATOM     34  C   UNL     1     -13.117   1.234   5.416  1.00  0.00     0.146 C 
BRANCH  34  35
ATOM     35  N   UNL     1     -12.894  -0.193   5.225  1.00  0.00    -0.254 NA
ATOM     36  C   UNL     1     -11.697  -0.607   5.033  1.00  0.00     0.185 C 
ATOM     37  N   UNL     1     -11.480  -1.920   4.861  1.00  0.00    -0.370 N 
ATOM     38  N   UNL     1     -10.557   0.103   4.973  1.00  0.00    -0.370 N 
ATOM     39  H   UNL     1     -12.291  -2.524   4.902  1.00  0.00     0.159 HD
ATOM     40  H   UNL     1     -10.566  -2.340   4.879  1.00  0.00     0.159 HD
ATOM     41  H   UNL     1      -9.693  -0.322   4.678  1.00  0.00     0.159 HD
ATOM     42  H   UNL     1     -10.571   1.106   5.070  1.00  0.00     0.159 HD
ENDBRANCH  34  35
ENDBRANCH  33  34
ENDBRANCH  32  33
ENDBRANCH   6  32
ENDBRANCH   4   6
ENDBRANCH   1   2
BRANCH   1  43
ATOM     43  C   UNL     1     -12.766   6.152   9.714  1.00  0.00     0.102 C 
ATOM     44  C   UNL     1     -13.374   6.505  11.081  1.00  0.00     0.020 C 
BRANCH  43  45
ATOM     45  C   UNL     1     -13.680   6.468   8.526  1.00  0.00     0.225 C 
ATOM     46  O   UNL     1     -13.392   6.192   7.365  1.00  0.00    -0.275 OA
ATOM     47  N   UNL     1     -14.822   7.174   8.829  1.00  0.00    -0.342 N 
ATOM     48  H   UNL     1     -15.117   7.258   9.792  1.00  0.00     0.164 HD
BRANCH  47  49
ATOM     49  C   UNL     1     -15.807   7.516   7.799  1.00  0.00     0.192 C 
BRANCH  49  50
ATOM     50  C   UNL     1     -15.844   9.034   7.606  1.00  0.00     0.047 C 
BRANCH  50  51
ATOM     51  C   UNL     1     -15.112   9.476   6.332  1.00  0.00     0.103 C 
BRANCH  51  52
ATOM     52  C   UNL     1     -14.031  10.515   6.623  1.00  0.00     0.226 C 
ATOM     53  O   UNL     1     -14.336  11.706   6.703  1.00  0.00    -0.275 OA
BRANCH  52  54
ATOM     54  N   UNL     1     -12.735  10.021   6.861  1.00  0.00    -0.311 N 
ATOM     55  C   UNL     1     -12.230   9.851   8.230  1.00  0.00     0.153 C 
BRANCH  54  56
ATOM     56  C   UNL     1     -11.880   9.668   5.804  1.00  0.00     0.102 C 
ATOM     57  C   UNL     1     -11.697   8.419   5.347  1.00  0.00     0.043 C 
BRANCH  56  58
ATOM     58  C   UNL     1     -11.108  10.723   5.046  1.00  0.00     0.268 C 
ATOM     59  O   UNL     1     -11.622  11.743   4.607  1.00  0.00    -0.268 OA
ATOM     60  N   UNL     1      -9.763  10.451   4.960  1.00  0.00    -0.339 N 
ATOM     61  H   UNL     1      -9.418   9.578   5.340  1.00  0.00     0.164 HD
BRANCH  60  62
ATOM     62  C   UNL     1      -8.822  11.370   4.323  1.00  0.00     0.168 CG0
ATOM     63  C   UNL     1      -7.727  10.609   3.585  1.00  0.00     0.041 C 
ATOM     64  G   UNL     1      -8.213  12.307   5.387  1.00  0.00     0.000 G0
ENDBRANCH  60  62
ENDBRANCH  56  58
ENDBRANCH  54  56
ENDBRANCH  52  54
ENDBRANCH  51  52
ENDBRANCH  50  51
ENDBRANCH  49  50
BRANCH  49  65
ATOM     65  C   UNL     1     -17.212   7.016   8.171  1.00  0.00     0.326 C 
ATOM     66  O   UNL     1     -17.501   5.867   8.473  1.00  0.00    -0.250 OA
BRANCH  65  67
ATOM     67  O   UNL     1     -18.184   7.951   8.090  1.00  0.00    -0.480 OA
ATOM     68  H   UNL     1     -19.002   7.455   8.305  1.00  0.00     0.296 HD
ENDBRANCH  65  67
ENDBRANCH  49  65
ENDBRANCH  47  49
ENDBRANCH  43  45
ENDBRANCH   1  43
BRANCH   1  69
ATOM     69  C   UNL     1     -10.893   4.441   8.957  1.00  0.00    -0.001 C 
ATOM     70  C   UNL     1      -9.981   3.505   9.275  1.00  0.00     0.001 C 
BRANCH  70  71
ATOM     71  C   UNL     1      -8.705   3.256   8.602  1.00  0.00    -0.055 C 
ATOM     72  C   UNL     1      -8.164   4.267   7.888  1.00  0.00    -0.018 C 
ATOM     73  C   UNL     1      -8.081   1.894   8.760  1.00  0.00     0.044 C 
BRANCH  72  74
ATOM     74  C   UNL     1      -6.865   4.299   7.097  1.00  0.00     0.038 C 
ATOM     75  C   UNL     1      -5.819   5.002   7.971  1.00  0.00     0.015 C 
BRANCH  74  76
ATOM     76  C   UNL     1      -7.132   4.980   5.722  1.00  0.00     0.128 C 
BRANCH  76  77
ATOM     77  O   UNL     1      -7.214   3.985   4.689  1.00  0.00    -0.381 OA
ATOM     78  C   UNL     1      -6.378   2.858   4.913  1.00  0.00     0.195 C 
ENDBRANCH  76  77
BRANCH  76  79
ATOM     79  C   UNL     1      -8.345   5.945   5.724  1.00  0.00     0.068 C 
BRANCH  79  80
ATOM     80  C   UNL     1      -9.315   5.863   4.570  1.00  0.00    -0.045 A 
ATOM     81  C   UNL     1     -10.445   5.037   4.635  1.00  0.00     0.004 A 
ATOM     82  C   UNL     1      -9.082   6.595   3.396  1.00  0.00     0.004 A 
ATOM     83  C   UNL     1     -11.330   4.956   3.558  1.00  0.00     0.000 A 
ATOM     84  C   UNL     1      -9.967   6.512   2.320  1.00  0.00     0.000 A 
ATOM     85  C   UNL     1     -11.092   5.694   2.401  1.00  0.00     0.000 A 
ENDBRANCH  79  80
ENDBRANCH  76  79
ENDBRANCH  74  76
ENDBRANCH  72  74
ENDBRANCH  70  71
ENDBRANCH   1  69
TORSDOF 17
ENDMDL
MODEL 18
REMARK VINA RESULT:    -7.051      3.087     12.153
REMARK INTER + INTRA:         -29.707
REMARK INTER:                 -20.429
REMARK INTRA:                  -9.278
REMARK UNBOUND:                -8.643
REMARK SMILES C=C1C(=O)N[C@H](C)C(=O)N[C@@H](CC(C)C)C(=O)N[C@@H](C(=O)O)[C@H](C)C(=O)N[C@@H](CCCN=C(N)N)C(=O)N[C@@H](/C=C/C(C)=C/[C@H](C)[C@H](Cc2ccccc2)OC)[C@H](C)C(=O)N[C@@H](C(=O)O)CCC(=O)N1C
REMARK SMILES IDX 39 1 38 2 37 3 36 4 28 6 27 7 25 8 26 9 23 11 24 12 19 13
REMARK SMILES IDX 18 14 16 15 17 16 11 18 10 19 8 20 9 21 12 24 13 25 14 26
REMARK SMILES IDX 15 27 20 28 21 29 22 30 29 32 30 33 31 34 32 35 33 36 34 37
REMARK SMILES IDX 35 38 57 43 58 44 59 45 60 46 61 47 62 49 66 50 67 51 68 52
REMARK SMILES IDX 69 53 70 54 71 55 2 56 1 57 3 58 4 59 5 60 6 62 7 63 63 65
REMARK SMILES IDX 64 66 65 67 40 69 41 70 42 71 44 72 43 73 45 74 46 75 47 76
REMARK SMILES IDX 55 77 56 78 48 79 49 80 50 81 54 82 51 83 53 84 52 85
REMARK H PARENT 38 5 27 10 18 17 10 22 22 31 34 39 34 40 35 41 35 42 61 48
REMARK H PARENT 5 61 65 68
REMARK Flexibility Score:  369.900
ROOT
ATOM      1  C   UNL     1     -13.014   3.680   6.849  1.00  0.00     0.117 C 
ENDROOT
BRANCH   1   2
ATOM      2  N   UNL     1     -12.016   3.431   7.890  1.00  0.00    -0.347 N 
ATOM      3  O   UNL     1     -12.705   1.324   8.487  1.00  0.00    -0.273 OA
ATOM      4  C   UNL     1     -11.884   2.233   8.564  1.00  0.00     0.243 C 
ATOM      5  H   UNL     1     -11.341   4.148   8.109  1.00  0.00     0.164 HD
BRANCH   4   6
ATOM      6  C   UNL     1     -10.693   2.203   9.555  1.00  0.00     0.171 C 
BRANCH   6   7
ATOM      7  N   UNL     1     -11.173   2.331  10.941  1.00  0.00    -0.344 N 
ATOM      8  C   UNL     1     -11.575   3.553  11.435  1.00  0.00     0.226 C 
ATOM      9  O   UNL     1     -11.534   4.581  10.768  1.00  0.00    -0.275 OA
ATOM     10  H   UNL     1     -11.158   1.518  11.542  1.00  0.00     0.164 HD
BRANCH   8  11
ATOM     11  C   UNL     1     -12.095   3.511  12.861  1.00  0.00     0.109 C 
ATOM     12  C   UNL     1     -11.209   4.364  13.769  1.00  0.00     0.021 C 
BRANCH  11  13
ATOM     13  C   UNL     1     -13.591   3.882  12.882  1.00  0.00     0.204 C 
BRANCH  13  14
ATOM     14  N   UNL     1     -14.343   3.203  11.822  1.00  0.00    -0.340 N 
ATOM     15  C   UNL     1     -15.456   3.753  11.224  1.00  0.00     0.243 C 
ATOM     16  O   UNL     1     -15.861   4.881  11.495  1.00  0.00    -0.273 OA
ATOM     17  H   UNL     1     -14.152   2.210  11.659  1.00  0.00     0.164 HD
BRANCH  15  18
ATOM     18  C   UNL     1     -16.202   2.772  10.286  1.00  0.00     0.171 C 
BRANCH  18  19
ATOM     19  N   UNL     1     -17.106   1.993  11.130  1.00  0.00    -0.343 N 
ATOM     20  C   UNL     1     -16.734   0.777  11.669  1.00  0.00     0.242 CG0
ATOM     21  O   UNL     1     -15.678   0.231  11.357  1.00  0.00    -0.273 OA
ATOM     22  H   UNL     1     -18.036   2.348  11.323  1.00  0.00     0.164 HD
ATOM     23  G   UNL     1     -17.790   0.141  12.595  1.00  0.00     0.000 G0
ENDBRANCH  18  19
BRANCH  18  24
ATOM     24  C   UNL     1     -16.967   3.538   9.200  1.00  0.00     0.038 C 
BRANCH  24  25
ATOM     25  C   UNL     1     -16.736   3.022   7.764  1.00  0.00    -0.015 C 
ATOM     26  C   UNL     1     -18.045   2.781   7.011  1.00  0.00     0.007 C 
ATOM     27  C   UNL     1     -15.921   1.727   7.807  1.00  0.00     0.007 C 
ENDBRANCH  24  25
ENDBRANCH  18  24
ENDBRANCH  15  18
ENDBRANCH  13  14
BRANCH  13  28
ATOM     28  C   UNL     1     -14.277   3.548  14.210  1.00  0.00     0.327 C 
ATOM     29  O   UNL     1     -14.885   2.521  14.472  1.00  0.00    -0.250 OA
BRANCH  28  30
ATOM     30  O   UNL     1     -14.259   4.572  15.087  1.00  0.00    -0.480 OA
ATOM     31  H   UNL     1     -13.422   4.452  15.582  1.00  0.00     0.296 HD
ENDBRANCH  28  30
ENDBRANCH  13  28
ENDBRANCH  11  13
ENDBRANCH   8  11
ENDBRANCH   6   7
BRANCH   6  32
ATOM     32  C   UNL     1      -9.913   0.898   9.365  1.00  0.00     0.037 C 
BRANCH  32  33
ATOM     33  C   UNL     1      -8.414   1.072   9.650  1.00  0.00     0.026 C 
BRANCH  33  34
ATOM     34  C   UNL     1      -7.598   1.294   8.375  1.00  0.00     0.146 C 
BRANCH  34  35
ATOM     35  N   UNL     1      -7.441   2.726   8.161  1.00  0.00    -0.254 NA
ATOM     36  C   UNL     1      -7.594   3.190   6.977  1.00  0.00     0.185 C 
ATOM     37  N   UNL     1      -7.457   4.509   6.769  1.00  0.00    -0.370 N 
ATOM     38  N   UNL     1      -7.889   2.531   5.843  1.00  0.00    -0.370 N 
ATOM     39  H   UNL     1      -7.244   5.077   7.580  1.00  0.00     0.159 HD
ATOM     40  H   UNL     1      -7.729   4.969   5.918  1.00  0.00     0.159 HD
ATOM     41  H   UNL     1      -7.845   2.990   4.948  1.00  0.00     0.159 HD
ATOM     42  H   UNL     1      -8.005   1.530   5.847  1.00  0.00     0.159 HD
ENDBRANCH  34  35
ENDBRANCH  33  34
ENDBRANCH  32  33
ENDBRANCH   6  32
ENDBRANCH   4   6
ENDBRANCH   1   2
BRANCH   1  43
ATOM     43  C   UNL     1     -12.311   3.611   5.462  1.00  0.00     0.102 C 
ATOM     44  C   UNL     1     -12.052   2.174   4.978  1.00  0.00     0.020 C 
BRANCH  43  45
ATOM     45  C   UNL     1     -11.073   4.511   5.428  1.00  0.00     0.225 C 
ATOM     46  O   UNL     1     -10.516   4.926   6.441  1.00  0.00    -0.275 OA
ATOM     47  N   UNL     1     -10.666   4.913   4.176  1.00  0.00    -0.342 N 
ATOM     48  H   UNL     1     -11.034   4.448   3.358  1.00  0.00     0.164 HD
BRANCH  47  49
ATOM     49  C   UNL     1      -9.476   5.747   3.988  1.00  0.00     0.192 C 
BRANCH  49  50
ATOM     50  C   UNL     1      -9.848   7.005   3.200  1.00  0.00     0.047 C 
BRANCH  50  51
ATOM     51  C   UNL     1      -9.187   8.267   3.772  1.00  0.00     0.103 C 
BRANCH  51  52
ATOM     52  C   UNL     1      -8.341   8.994   2.729  1.00  0.00     0.226 C 
ATOM     53  O   UNL     1      -8.287   8.560   1.577  1.00  0.00    -0.275 OA
BRANCH  52  54
ATOM     54  N   UNL     1      -7.721  10.186   3.146  1.00  0.00    -0.311 N 
ATOM     55  C   UNL     1      -8.108  10.841   4.402  1.00  0.00     0.153 C 
BRANCH  54  56
ATOM     56  C   UNL     1      -6.707  10.790   2.383  1.00  0.00     0.102 C 
ATOM     57  C   UNL     1      -5.465  10.304   2.233  1.00  0.00     0.043 C 
BRANCH  56  58
ATOM     58  C   UNL     1      -6.973  12.061   1.610  1.00  0.00     0.268 C 
ATOM     59  O   UNL     1      -8.098  12.491   1.395  1.00  0.00    -0.268 OA
ATOM     60  N   UNL     1      -5.823  12.713   1.232  1.00  0.00    -0.339 N 
ATOM     61  H   UNL     1      -4.929  12.284   1.439  1.00  0.00     0.164 HD
BRANCH  60  62
ATOM     62  C   UNL     1      -5.850  13.994   0.527  1.00  0.00     0.168 CG0
ATOM     63  C   UNL     1      -4.555  14.223  -0.242  1.00  0.00     0.041 C 
ATOM     64  G   UNL     1      -6.094  15.134   1.538  1.00  0.00     0.000 G0
ENDBRANCH  60  62
ENDBRANCH  56  58
ENDBRANCH  54  56
ENDBRANCH  52  54
ENDBRANCH  51  52
ENDBRANCH  50  51
ENDBRANCH  49  50
BRANCH  49  65
ATOM     65  C   UNL     1      -8.366   4.989   3.242  1.00  0.00     0.326 C 
ATOM     66  O   UNL     1      -7.247   4.758   3.677  1.00  0.00    -0.250 OA
BRANCH  65  67
ATOM     67  O   UNL     1      -8.685   4.618   1.982  1.00  0.00    -0.480 OA
ATOM     68  H   UNL     1      -9.618   4.907   1.885  1.00  0.00     0.296 HD
ENDBRANCH  65  67
ENDBRANCH  49  65
ENDBRANCH  47  49
ENDBRANCH  43  45
ENDBRANCH   1  43
BRANCH   1  69
ATOM     69  C   UNL     1     -13.731   4.958   7.245  1.00  0.00    -0.001 C 
ATOM     70  C   UNL     1     -13.815   5.500   8.473  1.00  0.00     0.001 C 
BRANCH  70  71
ATOM     71  C   UNL     1     -14.492   6.746   8.839  1.00  0.00    -0.055 C 
ATOM     72  C   UNL     1     -15.550   7.128   8.095  1.00  0.00    -0.018 C 
ATOM     73  C   UNL     1     -13.964   7.509  10.026  1.00  0.00     0.044 C 
BRANCH  72  74
ATOM     74  C   UNL     1     -16.438   8.356   8.240  1.00  0.00     0.038 C 
ATOM     75  C   UNL     1     -17.806   7.870   8.732  1.00  0.00     0.015 C 
BRANCH  74  76
ATOM     76  C   UNL     1     -16.465   9.118   6.882  1.00  0.00     0.128 C 
BRANCH  76  77
ATOM     77  O   UNL     1     -17.747   9.739   6.694  1.00  0.00    -0.381 OA
ATOM     78  C   UNL     1     -18.227   9.665   5.358  1.00  0.00     0.195 C 
ENDBRANCH  76  77
BRANCH  76  79
ATOM     79  C   UNL     1     -15.286  10.105   6.690  1.00  0.00     0.068 C 
BRANCH  79  80
ATOM     80  C   UNL     1     -13.886   9.539   6.668  1.00  0.00    -0.045 A 
ATOM     81  C   UNL     1     -13.517   8.564   5.732  1.00  0.00     0.004 A 
ATOM     82  C   UNL     1     -12.937   9.964   7.609  1.00  0.00     0.004 A 
ATOM     83  C   UNL     1     -12.224   8.035   5.727  1.00  0.00     0.000 A 
ATOM     84  C   UNL     1     -11.644   9.434   7.604  1.00  0.00     0.000 A 
ATOM     85  C   UNL     1     -11.288   8.471   6.662  1.00  0.00     0.000 A 
ENDBRANCH  79  80
ENDBRANCH  76  79
ENDBRANCH  74  76
ENDBRANCH  72  74
ENDBRANCH  70  71
ENDBRANCH   1  69
TORSDOF 17
ENDMDL
MODEL 19
REMARK VINA RESULT:    -7.028      2.595     11.356
REMARK INTER + INTRA:         -29.639
REMARK INTER:                 -23.025
REMARK INTRA:                  -6.614
REMARK UNBOUND:                -8.643
REMARK SMILES C=C1C(=O)N[C@H](C)C(=O)N[C@@H](CC(C)C)C(=O)N[C@@H](C(=O)O)[C@H](C)C(=O)N[C@@H](CCCN=C(N)N)C(=O)N[C@@H](/C=C/C(C)=C/[C@H](C)[C@H](Cc2ccccc2)OC)[C@H](C)C(=O)N[C@@H](C(=O)O)CCC(=O)N1C
REMARK SMILES IDX 39 1 38 2 37 3 36 4 28 6 27 7 25 8 26 9 23 11 24 12 19 13
REMARK SMILES IDX 18 14 16 15 17 16 11 18 10 19 8 20 9 21 12 24 13 25 14 26
REMARK SMILES IDX 15 27 20 28 21 29 22 30 29 32 30 33 31 34 32 35 33 36 34 37
REMARK SMILES IDX 35 38 57 43 58 44 59 45 60 46 61 47 62 49 66 50 67 51 68 52
REMARK SMILES IDX 69 53 70 54 71 55 2 56 1 57 3 58 4 59 5 60 6 62 7 63 63 65
REMARK SMILES IDX 64 66 65 67 40 69 41 70 42 71 44 72 43 73 45 74 46 75 47 76
REMARK SMILES IDX 55 77 56 78 48 79 49 80 50 81 54 82 51 83 53 84 52 85
REMARK H PARENT 38 5 27 10 18 17 10 22 22 31 34 39 34 40 35 41 35 42 61 48
REMARK H PARENT 5 61 65 68
REMARK Flexibility Score:  369.900
ROOT
ATOM      1  C   UNL     1     -12.257   6.365   7.053  1.00  0.00     0.117 C 
ENDROOT
BRANCH   1   2
ATOM      2  N   UNL     1     -13.567   5.780   7.344  1.00  0.00    -0.347 N 
ATOM      3  O   UNL     1     -14.089   7.073   9.167  1.00  0.00    -0.273 OA
ATOM      4  C   UNL     1     -14.420   6.245   8.326  1.00  0.00     0.243 C 
ATOM      5  H   UNL     1     -13.908   5.021   6.773  1.00  0.00     0.164 HD
BRANCH   4   6
ATOM      6  C   UNL     1     -15.781   5.504   8.370  1.00  0.00     0.171 C 
BRANCH   6   7
ATOM      7  N   UNL     1     -15.587   4.093   8.739  1.00  0.00    -0.344 N 
ATOM      8  C   UNL     1     -15.518   3.116   7.770  1.00  0.00     0.226 C 
ATOM      9  O   UNL     1     -15.634   3.362   6.575  1.00  0.00    -0.275 OA
ATOM     10  H   UNL     1     -15.555   3.842   9.719  1.00  0.00     0.164 HD
BRANCH   8  11
ATOM     11  C   UNL     1     -15.261   1.719   8.306  1.00  0.00     0.109 C 
ATOM     12  C   UNL     1     -13.936   1.684   9.068  1.00  0.00     0.021 C 
BRANCH  11  13
ATOM     13  C   UNL     1     -16.484   1.236   9.111  1.00  0.00     0.204 C 
BRANCH  13  14
ATOM     14  N   UNL     1     -16.582   1.898  10.416  1.00  0.00    -0.340 N 
ATOM     15  C   UNL     1     -16.367   1.240  11.607  1.00  0.00     0.243 C 
ATOM     16  O   UNL     1     -16.017   0.062  11.657  1.00  0.00    -0.273 OA
ATOM     17  H   UNL     1     -17.014   2.826  10.452  1.00  0.00     0.164 HD
BRANCH  15  18
ATOM     18  C   UNL     1     -16.729   2.083  12.854  1.00  0.00     0.171 C 
BRANCH  18  19
ATOM     19  N   UNL     1     -16.352   1.288  14.021  1.00  0.00    -0.343 N 
ATOM     20  C   UNL     1     -17.290   0.836  14.929  1.00  0.00     0.242 CG0
ATOM     21  O   UNL     1     -18.464   1.192  14.872  1.00  0.00    -0.273 OA
ATOM     22  H   UNL     1     -15.375   1.065  14.176  1.00  0.00     0.164 HD
ATOM     23  G   UNL     1     -16.713  -0.053  16.051  1.00  0.00     0.000 G0
ENDBRANCH  18  19
BRANCH  18  24
ATOM     24  C   UNL     1     -15.995   3.429  12.830  1.00  0.00     0.038 C 
BRANCH  24  25
ATOM     25  C   UNL     1     -14.462   3.329  12.977  1.00  0.00    -0.015 C 
ATOM     26  C   UNL     1     -13.967   3.865  14.320  1.00  0.00     0.007 C 
ATOM     27  C   UNL     1     -13.784   4.094  11.836  1.00  0.00     0.007 C 
ENDBRANCH  24  25
ENDBRANCH  18  24
ENDBRANCH  15  18
ENDBRANCH  13  14
BRANCH  13  28
ATOM     28  C   UNL     1     -17.813   1.466   8.385  1.00  0.00     0.327 C 
ATOM     29  O   UNL     1     -18.230   0.836   7.424  1.00  0.00    -0.250 OA
BRANCH  28  30
ATOM     30  O   UNL     1     -18.481   2.547   8.834  1.00  0.00    -0.480 OA
ATOM     31  H   UNL     1     -18.376   3.209   8.119  1.00  0.00     0.296 HD
ENDBRANCH  28  30
ENDBRANCH  13  28
ENDBRANCH  11  13
ENDBRANCH   8  11
ENDBRANCH   6   7
BRANCH   6  32
ATOM     32  C   UNL     1     -16.706   6.209   9.369  1.00  0.00     0.037 C 
BRANCH  32  33
ATOM     33  C   UNL     1     -17.785   7.047   8.668  1.00  0.00     0.026 C 
BRANCH  33  34
ATOM     34  C   UNL     1     -17.194   8.197   7.852  1.00  0.00     0.146 C 
BRANCH  34  35
ATOM     35  N   UNL     1     -18.279   8.914   7.197  1.00  0.00    -0.254 NA
ATOM     36  C   UNL     1     -17.988   9.824   6.344  1.00  0.00     0.185 C 
ATOM     37  N   UNL     1     -18.980  10.487   5.730  1.00  0.00    -0.370 N 
ATOM     38  N   UNL     1     -16.777  10.246   5.939  1.00  0.00    -0.370 N 
ATOM     39  H   UNL     1     -19.925  10.219   5.975  1.00  0.00     0.159 HD
ATOM     40  H   UNL     1     -18.841  11.084   4.933  1.00  0.00     0.159 HD
ATOM     41  H   UNL     1     -16.676  11.067   5.365  1.00  0.00     0.159 HD
ATOM     42  H   UNL     1     -15.938   9.846   6.329  1.00  0.00     0.159 HD
ENDBRANCH  34  35
ENDBRANCH  33  34
ENDBRANCH  32  33
ENDBRANCH   6  32
ENDBRANCH   4   6
ENDBRANCH   1   2
BRANCH   1  43
ATOM     43  C   UNL     1     -12.273   6.914   5.597  1.00  0.00     0.102 C 
ATOM     44  C   UNL     1     -10.957   6.673   4.838  1.00  0.00     0.020 C 
BRANCH  43  45
ATOM     45  C   UNL     1     -12.753   8.368   5.563  1.00  0.00     0.225 C 
ATOM     46  O   UNL     1     -13.927   8.690   5.721  1.00  0.00    -0.275 OA
ATOM     47  N   UNL     1     -11.793   9.301   5.246  1.00  0.00    -0.342 N 
ATOM     48  H   UNL     1     -10.817   9.043   5.269  1.00  0.00     0.164 HD
BRANCH  47  49
ATOM     49  C   UNL     1     -12.101  10.734   5.211  1.00  0.00     0.192 C 
BRANCH  49  50
ATOM     50  C   UNL     1     -10.802  11.536   5.090  1.00  0.00     0.047 C 
BRANCH  50  51
ATOM     51  C   UNL     1      -9.981  11.132   3.857  1.00  0.00     0.103 C 
BRANCH  51  52
ATOM     52  C   UNL     1      -8.551  10.742   4.224  1.00  0.00     0.226 C 
ATOM     53  O   UNL     1      -8.119  10.994   5.351  1.00  0.00    -0.275 OA
BRANCH  52  54
ATOM     54  N   UNL     1      -7.824  10.035   3.248  1.00  0.00    -0.311 N 
ATOM     55  C   UNL     1      -8.027   8.593   3.051  1.00  0.00     0.153 C 
BRANCH  54  56
ATOM     56  C   UNL     1      -6.886  10.679   2.424  1.00  0.00     0.102 C 
ATOM     57  C   UNL     1      -6.990  11.943   1.983  1.00  0.00     0.043 C 
BRANCH  56  58
ATOM     58  C   UNL     1      -5.619   9.976   1.995  1.00  0.00     0.268 C 
ATOM     59  O   UNL     1      -5.465   9.494   0.881  1.00  0.00    -0.268 OA
ATOM     60  N   UNL     1      -4.640   9.991   2.960  1.00  0.00    -0.339 N 
ATOM     61  H   UNL     1      -4.851  10.401   3.862  1.00  0.00     0.164 HD
BRANCH  60  62
ATOM     62  C   UNL     1      -3.313   9.422   2.732  1.00  0.00     0.168 CG0
ATOM     63  C   UNL     1      -3.232   7.995   3.260  1.00  0.00     0.041 C 
ATOM     64  G   UNL     1      -2.246  10.313   3.400  1.00  0.00     0.000 G0
ENDBRANCH  60  62
ENDBRANCH  56  58
ENDBRANCH  54  56
ENDBRANCH  52  54
ENDBRANCH  51  52
ENDBRANCH  50  51
ENDBRANCH  49  50
BRANCH  49  65
ATOM     65  C   UNL     1     -12.860  11.182   6.469  1.00  0.00     0.326 C 
ATOM     66  O   UNL     1     -12.505  10.982   7.622  1.00  0.00    -0.250 OA
BRANCH  65  67
ATOM     67  O   UNL     1     -14.039  11.796   6.228  1.00  0.00    -0.480 OA
ATOM     68  H   UNL     1     -14.096  11.811   5.248  1.00  0.00     0.296 HD
ENDBRANCH  65  67
ENDBRANCH  49  65
ENDBRANCH  47  49
ENDBRANCH  43  45
ENDBRANCH   1  43
BRANCH   1  69
ATOM     69  C   UNL     1     -11.230   5.313   7.429  1.00  0.00    -0.001 C 
ATOM     70  C   UNL     1     -11.136   4.641   8.590  1.00  0.00     0.001 C 
BRANCH  70  71
ATOM     71  C   UNL     1     -10.152   3.612   8.934  1.00  0.00    -0.055 C 
ATOM     72  C   UNL     1      -9.078   3.477   8.129  1.00  0.00    -0.018 C 
ATOM     73  C   UNL     1     -10.405   2.784  10.167  1.00  0.00     0.044 C 
BRANCH  72  74
ATOM     74  C   UNL     1      -7.909   2.509   8.237  1.00  0.00     0.038 C 
ATOM     75  C   UNL     1      -6.633   3.352   8.357  1.00  0.00     0.015 C 
BRANCH  74  76
ATOM     76  C   UNL     1      -7.942   1.544   7.016  1.00  0.00     0.128 C 
BRANCH  76  77
ATOM     77  O   UNL     1      -6.827   1.812   6.148  1.00  0.00    -0.381 OA
ATOM     78  C   UNL     1      -7.080   1.509   4.783  1.00  0.00     0.195 C 
ENDBRANCH  76  77
BRANCH  76  79
ATOM     79  C   UNL     1      -8.057   0.047   7.398  1.00  0.00     0.068 C 
BRANCH  79  80
ATOM     80  C   UNL     1      -9.369  -0.438   7.968  1.00  0.00    -0.045 A 
ATOM     81  C   UNL     1      -9.484  -0.783   9.321  1.00  0.00     0.004 A 
ATOM     82  C   UNL     1     -10.492  -0.577   7.138  1.00  0.00     0.004 A 
ATOM     83  C   UNL     1     -10.697  -1.244   9.837  1.00  0.00     0.000 A 
ATOM     84  C   UNL     1     -11.704  -1.039   7.656  1.00  0.00     0.000 A 
ATOM     85  C   UNL     1     -11.807  -1.371   9.004  1.00  0.00     0.000 A 
ENDBRANCH  79  80
ENDBRANCH  76  79
ENDBRANCH  74  76
ENDBRANCH  72  74
ENDBRANCH  70  71
ENDBRANCH   1  69
TORSDOF 17
ENDMDL
MODEL 20
REMARK VINA RESULT:    -7.027      2.649      6.791
REMARK INTER + INTRA:         -29.636
REMARK INTER:                 -20.575
REMARK INTRA:                  -9.061
REMARK UNBOUND:                -8.643
REMARK SMILES C=C1C(=O)N[C@H](C)C(=O)N[C@@H](CC(C)C)C(=O)N[C@@H](C(=O)O)[C@H](C)C(=O)N[C@@H](CCCN=C(N)N)C(=O)N[C@@H](/C=C/C(C)=C/[C@H](C)[C@H](Cc2ccccc2)OC)[C@H](C)C(=O)N[C@@H](C(=O)O)CCC(=O)N1C
REMARK SMILES IDX 39 1 38 2 37 3 36 4 28 6 27 7 25 8 26 9 23 11 24 12 19 13
REMARK SMILES IDX 18 14 16 15 17 16 11 18 10 19 8 20 9 21 12 24 13 25 14 26
REMARK SMILES IDX 15 27 20 28 21 29 22 30 29 32 30 33 31 34 32 35 33 36 34 37
REMARK SMILES IDX 35 38 57 43 58 44 59 45 60 46 61 47 62 49 66 50 67 51 68 52
REMARK SMILES IDX 69 53 70 54 71 55 2 56 1 57 3 58 4 59 5 60 6 62 7 63 63 65
REMARK SMILES IDX 64 66 65 67 40 69 41 70 42 71 44 72 43 73 45 74 46 75 47 76
REMARK SMILES IDX 55 77 56 78 48 79 49 80 50 81 54 82 51 83 53 84 52 85
REMARK H PARENT 38 5 27 10 18 17 10 22 22 31 34 39 34 40 35 41 35 42 61 48
REMARK H PARENT 5 61 65 68
REMARK Flexibility Score:  369.900
ROOT
ATOM      1  C   UNL     1     -11.029   1.036   8.263  1.00  0.00     0.117 C 
ENDROOT
BRANCH   1   2
ATOM      2  N   UNL     1      -9.955   1.832   7.667  1.00  0.00    -0.347 N 
ATOM      3  O   UNL     1      -8.241   1.093   9.003  1.00  0.00    -0.273 OA
ATOM      4  C   UNL     1      -8.625   1.728   8.027  1.00  0.00     0.243 C 
ATOM      5  H   UNL     1     -10.169   2.466   6.912  1.00  0.00     0.164 HD
BRANCH   4   6
ATOM      6  C   UNL     1      -7.680   2.619   7.182  1.00  0.00     0.171 C 
BRANCH   6   7
ATOM      7  N   UNL     1      -8.350   3.053   5.946  1.00  0.00    -0.344 N 
ATOM      8  C   UNL     1      -7.650   3.146   4.763  1.00  0.00     0.226 C 
ATOM      9  O   UNL     1      -6.453   2.899   4.682  1.00  0.00    -0.275 OA
ATOM     10  H   UNL     1      -9.323   3.331   5.987  1.00  0.00     0.164 HD
BRANCH   8  11
ATOM     11  C   UNL     1      -8.494   3.554   3.568  1.00  0.00     0.109 C 
ATOM     12  C   UNL     1      -9.830   2.812   3.588  1.00  0.00     0.021 C 
BRANCH  11  13
ATOM     13  C   UNL     1      -8.607   5.091   3.510  1.00  0.00     0.204 C 
BRANCH  13  14
ATOM     14  N   UNL     1      -7.317   5.729   3.228  1.00  0.00    -0.340 N 
ATOM     15  C   UNL     1      -7.046   7.042   3.548  1.00  0.00     0.243 C 
ATOM     16  O   UNL     1      -7.848   7.754   4.148  1.00  0.00    -0.273 OA
ATOM     17  H   UNL     1      -6.668   5.245   2.602  1.00  0.00     0.164 HD
BRANCH  15  18
ATOM     18  C   UNL     1      -5.703   7.554   2.971  1.00  0.00     0.171 C 
BRANCH  18  19
ATOM     19  N   UNL     1      -5.686   9.002   3.173  1.00  0.00    -0.343 N 
ATOM     20  C   UNL     1      -5.565   9.884   2.116  1.00  0.00     0.242 CG0
ATOM     21  O   UNL     1      -5.333   9.492   0.975  1.00  0.00    -0.273 OA
ATOM     22  H   UNL     1      -5.759   9.373   4.113  1.00  0.00     0.164 HD
ATOM     23  G   UNL     1      -5.646  11.371   2.516  1.00  0.00     0.000 G0
ENDBRANCH  18  19
BRANCH  18  24
ATOM     24  C   UNL     1      -4.519   6.875   3.670  1.00  0.00     0.038 C 
BRANCH  24  25
ATOM     25  C   UNL     1      -3.583   6.086   2.730  1.00  0.00    -0.015 C 
ATOM     26  C   UNL     1      -3.602   6.622   1.299  1.00  0.00     0.007 C 
ATOM     27  C   UNL     1      -3.980   4.607   2.732  1.00  0.00     0.007 C 
ENDBRANCH  24  25
ENDBRANCH  18  24
ENDBRANCH  15  18
ENDBRANCH  13  14
BRANCH  13  28
ATOM     28  C   UNL     1      -9.598   5.584   2.450  1.00  0.00     0.327 C 
ATOM     29  O   UNL     1      -9.608   5.271   1.270  1.00  0.00    -0.250 OA
BRANCH  28  30
ATOM     30  O   UNL     1     -10.440   6.529   2.914  1.00  0.00    -0.480 OA
ATOM     31  H   UNL     1      -9.857   7.287   3.128  1.00  0.00     0.296 HD
ENDBRANCH  28  30
ENDBRANCH  13  28
ENDBRANCH  11  13
ENDBRANCH   8  11
ENDBRANCH   6   7
BRANCH   6  32
ATOM     32  C   UNL     1      -7.243   3.826   8.021  1.00  0.00     0.037 C 
BRANCH  32  33
ATOM     33  C   UNL     1      -8.441   4.605   8.582  1.00  0.00     0.026 C 
BRANCH  33  34
ATOM     34  C   UNL     1      -8.930   5.694   7.626  1.00  0.00     0.146 C 
BRANCH  34  35
ATOM     35  N   UNL     1     -10.124   5.217   6.943  1.00  0.00    -0.254 NA
ATOM     36  C   UNL     1     -10.760   6.027   6.180  1.00  0.00     0.185 C 
ATOM     37  N   UNL     1     -11.859   5.597   5.541  1.00  0.00    -0.370 N 
ATOM     38  N   UNL     1     -10.486   7.313   5.899  1.00  0.00    -0.370 N 
ATOM     39  H   UNL     1     -12.124   4.632   5.694  1.00  0.00     0.159 HD
ATOM     40  H   UNL     1     -12.307   6.108   4.800  1.00  0.00     0.159 HD
ATOM     41  H   UNL     1     -11.141   7.886   5.392  1.00  0.00     0.159 HD
ATOM     42  H   UNL     1      -9.696   7.774   6.322  1.00  0.00     0.159 HD
ENDBRANCH  34  35
ENDBRANCH  33  34
ENDBRANCH  32  33
ENDBRANCH   6  32
ENDBRANCH   4   6
ENDBRANCH   1   2
BRANCH   1  43
ATOM     43  C   UNL     1     -11.921   0.474   7.119  1.00  0.00     0.102 C 
ATOM     44  C   UNL     1     -11.155  -0.418   6.127  1.00  0.00     0.020 C 
BRANCH  43  45
ATOM     45  C   UNL     1     -12.731   1.590   6.453  1.00  0.00     0.225 C 
ATOM     46  O   UNL     1     -12.216   2.585   5.952  1.00  0.00    -0.275 OA
ATOM     47  N   UNL     1     -14.099   1.458   6.532  1.00  0.00    -0.342 N 
ATOM     48  H   UNL     1     -14.500   0.572   6.807  1.00  0.00     0.164 HD
BRANCH  47  49
ATOM     49  C   UNL     1     -15.000   2.431   5.909  1.00  0.00     0.192 C 
BRANCH  49  50
ATOM     50  C   UNL     1     -15.691   3.261   6.994  1.00  0.00     0.047 C 
BRANCH  50  51
ATOM     51  C   UNL     1     -15.962   2.445   8.265  1.00  0.00     0.103 C 
BRANCH  51  52
ATOM     52  C   UNL     1     -17.452   2.379   8.597  1.00  0.00     0.226 C 
ATOM     53  O   UNL     1     -18.109   3.420   8.666  1.00  0.00    -0.275 OA
BRANCH  52  54
ATOM     54  N   UNL     1     -18.007   1.093   8.732  1.00  0.00    -0.311 N 
ATOM     55  C   UNL     1     -17.749   0.049   7.731  1.00  0.00     0.153 C 
BRANCH  54  56
ATOM     56  C   UNL     1     -18.821   0.758   9.826  1.00  0.00     0.102 C 
ATOM     57  C   UNL     1     -20.158   0.885   9.857  1.00  0.00     0.043 C 
BRANCH  56  58
ATOM     58  C   UNL     1     -18.226   0.164  11.081  1.00  0.00     0.268 C 
ATOM     59  O   UNL     1     -17.022   0.118  11.295  1.00  0.00    -0.268 OA
ATOM     60  N   UNL     1     -19.175  -0.257  11.982  1.00  0.00    -0.339 N 
ATOM     61  H   UNL     1     -20.153  -0.195  11.725  1.00  0.00     0.164 HD
BRANCH  60  62
ATOM     62  C   UNL     1     -18.819  -0.807  13.290  1.00  0.00     0.168 CG0
ATOM     63  C   UNL     1     -18.740  -2.328  13.241  1.00  0.00     0.041 C 
ATOM     64  G   UNL     1     -19.849  -0.347  14.342  1.00  0.00     0.000 G0
ENDBRANCH  60  62
ENDBRANCH  56  58
ENDBRANCH  54  56
ENDBRANCH  52  54
ENDBRANCH  51  52
ENDBRANCH  50  51
ENDBRANCH  49  50
BRANCH  49  65
ATOM     65  C   UNL     1     -16.064   1.743   5.039  1.00  0.00     0.326 C 
ATOM     66  O   UNL     1     -15.999   0.601   4.608  1.00  0.00    -0.250 OA
BRANCH  65  67
ATOM     67  O   UNL     1     -17.113   2.527   4.705  1.00  0.00    -0.480 OA
ATOM     68  H   UNL     1     -16.841   2.926   3.850  1.00  0.00     0.296 HD
ENDBRANCH  65  67
ENDBRANCH  49  65
ENDBRANCH  47  49
ENDBRANCH  43  45
ENDBRANCH   1  43
BRANCH   1  69
ATOM     69  C   UNL     1     -11.666   1.913   9.326  1.00  0.00    -0.001 C 
ATOM     70  C   UNL     1     -11.775   3.253   9.322  1.00  0.00     0.001 C 
BRANCH  70  71
ATOM     71  C   UNL     1     -12.411   4.086  10.344  1.00  0.00    -0.055 C 
ATOM     72  C   UNL     1     -13.733   4.330  10.222  1.00  0.00    -0.018 C 
ATOM     73  C   UNL     1     -11.548   4.606  11.465  1.00  0.00     0.044 C 
BRANCH  72  74
ATOM     74  C   UNL     1     -14.649   5.148  11.122  1.00  0.00     0.038 C 
ATOM     75  C   UNL     1     -15.745   4.203  11.630  1.00  0.00     0.015 C 
BRANCH  74  76
ATOM     76  C   UNL     1     -15.167   6.380  10.322  1.00  0.00     0.128 C 
BRANCH  76  77
ATOM     77  O   UNL     1     -14.761   7.594  10.975  1.00  0.00    -0.381 OA
ATOM     78  C   UNL     1     -13.355   7.796  10.982  1.00  0.00     0.195 C 
ENDBRANCH  76  77
BRANCH  76  79
ATOM     79  C   UNL     1     -14.798   6.355   8.818  1.00  0.00     0.068 C 
BRANCH  79  80
ATOM     80  C   UNL     1     -15.094   7.586   7.996  1.00  0.00    -0.045 A 
ATOM     81  C   UNL     1     -16.380   8.141   7.966  1.00  0.00     0.004 A 
ATOM     82  C   UNL     1     -14.085   8.180   7.223  1.00  0.00     0.004 A 
ATOM     83  C   UNL     1     -16.649   9.272   7.192  1.00  0.00     0.000 A 
ATOM     84  C   UNL     1     -14.355   9.310   6.449  1.00  0.00     0.000 A 
ATOM     85  C   UNL     1     -15.636   9.857   6.435  1.00  0.00     0.000 A 
ENDBRANCH  79  80
ENDBRANCH  76  79
ENDBRANCH  74  76
ENDBRANCH  72  74
ENDBRANCH  70  71
ENDBRANCH   1  69
TORSDOF 17
ENDMDL
MODEL 21
REMARK VINA RESULT:    -7.022      2.984     11.639
REMARK INTER + INTRA:         -29.623
REMARK INTER:                 -24.328
REMARK INTRA:                  -5.295
REMARK UNBOUND:                -8.643
REMARK SMILES C=C1C(=O)N[C@H](C)C(=O)N[C@@H](CC(C)C)C(=O)N[C@@H](C(=O)O)[C@H](C)C(=O)N[C@@H](CCCN=C(N)N)C(=O)N[C@@H](/C=C/C(C)=C/[C@H](C)[C@H](Cc2ccccc2)OC)[C@H](C)C(=O)N[C@@H](C(=O)O)CCC(=O)N1C
REMARK SMILES IDX 39 1 38 2 37 3 36 4 28 6 27 7 25 8 26 9 23 11 24 12 19 13
REMARK SMILES IDX 18 14 16 15 17 16 11 18 10 19 8 20 9 21 12 24 13 25 14 26
REMARK SMILES IDX 15 27 20 28 21 29 22 30 29 32 30 33 31 34 32 35 33 36 34 37
REMARK SMILES IDX 35 38 57 43 58 44 59 45 60 46 61 47 62 49 66 50 67 51 68 52
REMARK SMILES IDX 69 53 70 54 71 55 2 56 1 57 3 58 4 59 5 60 6 62 7 63 63 65
REMARK SMILES IDX 64 66 65 67 40 69 41 70 42 71 44 72 43 73 45 74 46 75 47 76
REMARK SMILES IDX 55 77 56 78 48 79 49 80 50 81 54 82 51 83 53 84 52 85
REMARK H PARENT 38 5 27 10 18 17 10 22 22 31 34 39 34 40 35 41 35 42 61 48
REMARK H PARENT 5 61 65 68
REMARK Flexibility Score:  369.900
ROOT
ATOM      1  C   UNL     1     -14.672   5.480   8.743  1.00  0.00     0.117 C 
ENDROOT
BRANCH   1   2
ATOM      2  N   UNL     1     -15.677   4.599   8.146  1.00  0.00    -0.347 N 
ATOM      3  O   UNL     1     -14.877   2.610   8.967  1.00  0.00    -0.273 OA
ATOM      4  C   UNL     1     -15.752   3.240   8.382  1.00  0.00     0.243 C 
ATOM      5  H   UNL     1     -16.398   4.996   7.563  1.00  0.00     0.164 HD
BRANCH   4   6
ATOM      6  C   UNL     1     -16.962   2.554   7.697  1.00  0.00     0.171 C 
BRANCH   6   7
ATOM      7  N   UNL     1     -18.097   2.462   8.630  1.00  0.00    -0.344 N 
ATOM      8  C   UNL     1     -18.836   1.303   8.724  1.00  0.00     0.226 C 
ATOM      9  O   UNL     1     -18.607   0.316   8.035  1.00  0.00    -0.275 OA
ATOM     10  H   UNL     1     -18.358   3.279   9.167  1.00  0.00     0.164 HD
BRANCH   8  11
ATOM     11  C   UNL     1     -19.937   1.347   9.769  1.00  0.00     0.109 C 
ATOM     12  C   UNL     1     -21.306   1.250   9.095  1.00  0.00     0.021 C 
BRANCH  11  13
ATOM     13  C   UNL     1     -19.671   0.283  10.852  1.00  0.00     0.204 C 
BRANCH  13  14
ATOM     14  N   UNL     1     -19.975  -1.072  10.381  1.00  0.00    -0.340 N 
ATOM     15  C   UNL     1     -20.922  -1.877  10.978  1.00  0.00     0.243 C 
ATOM     16  O   UNL     1     -21.622  -1.491  11.912  1.00  0.00    -0.273 OA
ATOM     17  H   UNL     1     -19.331  -1.505   9.714  1.00  0.00     0.164 HD
BRANCH  15  18
ATOM     18  C   UNL     1     -20.923  -3.330  10.444  1.00  0.00     0.171 C 
BRANCH  18  19
ATOM     19  N   UNL     1     -22.315  -3.775  10.443  1.00  0.00    -0.343 N 
ATOM     20  C   UNL     1     -22.752  -4.803  11.256  1.00  0.00     0.242 CG0
ATOM     21  O   UNL     1     -21.968  -5.479  11.918  1.00  0.00    -0.273 OA
ATOM     22  H   UNL     1     -22.981  -3.324   9.827  1.00  0.00     0.164 HD
ATOM     23  G   UNL     1     -24.268  -5.078  11.175  1.00  0.00     0.000 G0
ENDBRANCH  18  19
BRANCH  18  24
ATOM     24  C   UNL     1     -20.312  -3.392   9.039  1.00  0.00     0.038 C 
BRANCH  24  25
ATOM     25  C   UNL     1     -19.599  -4.719   8.703  1.00  0.00    -0.015 C 
ATOM     26  C   UNL     1     -18.605  -4.574   7.551  1.00  0.00     0.007 C 
ATOM     27  C   UNL     1     -20.638  -5.788   8.356  1.00  0.00     0.007 C 
ENDBRANCH  24  25
ENDBRANCH  18  24
ENDBRANCH  15  18
ENDBRANCH  13  14
BRANCH  13  28
ATOM     28  C   UNL     1     -18.222   0.275  11.348  1.00  0.00     0.327 C 
ATOM     29  O   UNL     1     -17.224   0.110  10.663  1.00  0.00    -0.250 OA
BRANCH  28  30
ATOM     30  O   UNL     1     -18.122   0.358  12.691  1.00  0.00    -0.480 OA
ATOM     31  H   UNL     1     -18.689   1.120  12.928  1.00  0.00     0.296 HD
ENDBRANCH  28  30
ENDBRANCH  13  28
ENDBRANCH  11  13
ENDBRANCH   8  11
ENDBRANCH   6   7
BRANCH   6  32
ATOM     32  C   UNL     1     -17.347   3.348   6.444  1.00  0.00     0.037 C 
BRANCH  32  33
ATOM     33  C   UNL     1     -17.810   2.435   5.300  1.00  0.00     0.026 C 
BRANCH  33  34
ATOM     34  C   UNL     1     -16.698   1.511   4.801  1.00  0.00     0.146 C 
BRANCH  34  35
ATOM     35  N   UNL     1     -15.542   2.319   4.440  1.00  0.00    -0.254 NA
ATOM     36  C   UNL     1     -14.399   2.008   4.926  1.00  0.00     0.185 C 
ATOM     37  N   UNL     1     -13.325   2.743   4.596  1.00  0.00    -0.370 N 
ATOM     38  N   UNL     1     -14.081   1.003   5.762  1.00  0.00    -0.370 N 
ATOM     39  H   UNL     1     -13.482   3.514   3.959  1.00  0.00     0.159 HD
ATOM     40  H   UNL     1     -12.379   2.465   4.791  1.00  0.00     0.159 HD
ATOM     41  H   UNL     1     -13.169   0.946   6.184  1.00  0.00     0.159 HD
ATOM     42  H   UNL     1     -14.793   0.379   6.106  1.00  0.00     0.159 HD
ENDBRANCH  34  35
ENDBRANCH  33  34
ENDBRANCH  32  33
ENDBRANCH   6  32
ENDBRANCH   4   6
ENDBRANCH   1   2
BRANCH   1  43
ATOM     43  C   UNL     1     -15.389   6.746   9.294  1.00  0.00     0.102 C 
ATOM     44  C   UNL     1     -15.945   6.565  10.717  1.00  0.00     0.020 C 
BRANCH  43  45
ATOM     45  C   UNL     1     -16.414   7.279   8.289  1.00  0.00     0.225 C 
ATOM     46  O   UNL     1     -17.439   6.672   7.991  1.00  0.00    -0.275 OA
ATOM     47  N   UNL     1     -16.071   8.453   7.659  1.00  0.00    -0.342 N 
ATOM     48  H   UNL     1     -15.310   9.011   8.020  1.00  0.00     0.164 HD
BRANCH  47  49
ATOM     49  C   UNL     1     -16.972   9.099   6.699  1.00  0.00     0.192 C 
BRANCH  49  50
ATOM     50  C   UNL     1     -16.186  10.103   5.852  1.00  0.00     0.047 C 
BRANCH  50  51
ATOM     51  C   UNL     1     -14.841  10.477   6.490  1.00  0.00     0.103 C 
BRANCH  51  52
ATOM     52  C   UNL     1     -13.681   9.687   5.887  1.00  0.00     0.226 C 
ATOM     53  O   UNL     1     -13.914   8.743   5.130  1.00  0.00    -0.275 OA
BRANCH  52  54
ATOM     54  N   UNL     1     -12.386  10.150   6.185  1.00  0.00    -0.311 N 
ATOM     55  C   UNL     1     -11.759   9.860   7.481  1.00  0.00     0.153 C 
BRANCH  54  56
ATOM     56  C   UNL     1     -11.644  10.900   5.257  1.00  0.00     0.102 C 
ATOM     57  C   UNL     1     -12.118  11.944   4.558  1.00  0.00     0.043 C 
BRANCH  56  58
ATOM     58  C   UNL     1     -10.187  10.595   5.003  1.00  0.00     0.268 C 
ATOM     59  O   UNL     1      -9.282  11.372   5.279  1.00  0.00    -0.268 OA
ATOM     60  N   UNL     1      -9.978   9.336   4.493  1.00  0.00    -0.339 N 
ATOM     61  H   UNL     1     -10.782   8.757   4.281  1.00  0.00     0.164 HD
BRANCH  60  62
ATOM     62  C   UNL     1      -8.638   8.813   4.231  1.00  0.00     0.168 CG0
ATOM     63  C   UNL     1      -8.686   7.654   3.244  1.00  0.00     0.041 C 
ATOM     64  G   UNL     1      -7.987   8.373   5.559  1.00  0.00     0.000 G0
ENDBRANCH  60  62
ENDBRANCH  56  58
ENDBRANCH  54  56
ENDBRANCH  52  54
ENDBRANCH  51  52
ENDBRANCH  50  51
ENDBRANCH  49  50
BRANCH  49  65
ATOM     65  C   UNL     1     -18.127   9.825   7.406  1.00  0.00     0.326 C 
ATOM     66  O   UNL     1     -18.895  10.619   6.882  1.00  0.00    -0.250 OA
BRANCH  65  67
ATOM     67  O   UNL     1     -18.226   9.571   8.730  1.00  0.00    -0.480 OA
ATOM     68  H   UNL     1     -17.907  10.399   9.149  1.00  0.00     0.296 HD
ENDBRANCH  65  67
ENDBRANCH  49  65
ENDBRANCH  47  49
ENDBRANCH  43  45
ENDBRANCH   1  43
BRANCH   1  69
ATOM     69  C   UNL     1     -13.583   5.648   7.700  1.00  0.00    -0.001 C 
ATOM     70  C   UNL     1     -12.364   5.081   7.693  1.00  0.00     0.001 C 
BRANCH  70  71
ATOM     71  C   UNL     1     -11.328   5.234   6.669  1.00  0.00    -0.055 C 
ATOM     72  C   UNL     1     -10.263   4.408   6.725  1.00  0.00    -0.018 C 
ATOM     73  C   UNL     1     -11.529   6.297   5.620  1.00  0.00     0.044 C 
BRANCH  72  74
ATOM     74  C   UNL     1      -9.051   4.335   5.807  1.00  0.00     0.038 C 
ATOM     75  C   UNL     1      -8.850   2.860   5.440  1.00  0.00     0.015 C 
BRANCH  74  76
ATOM     76  C   UNL     1      -7.839   5.001   6.523  1.00  0.00     0.128 C 
BRANCH  76  77
ATOM     77  O   UNL     1      -8.121   5.156   7.924  1.00  0.00    -0.381 OA
ATOM     78  C   UNL     1      -6.963   5.368   8.720  1.00  0.00     0.195 C 
ENDBRANCH  76  77
BRANCH  76  79
ATOM     79  C   UNL     1      -6.486   4.294   6.259  1.00  0.00     0.068 C 
BRANCH  79  80
ATOM     80  C   UNL     1      -5.660   4.763   5.086  1.00  0.00    -0.045 A 
ATOM     81  C   UNL     1      -5.468   6.129   4.839  1.00  0.00     0.004 A 
ATOM     82  C   UNL     1      -5.090   3.833   4.204  1.00  0.00     0.004 A 
ATOM     83  C   UNL     1      -4.715   6.556   3.744  1.00  0.00     0.000 A 
ATOM     84  C   UNL     1      -4.337   4.261   3.109  1.00  0.00     0.000 A 
ATOM     85  C   UNL     1      -4.148   5.622   2.880  1.00  0.00     0.000 A 
ENDBRANCH  79  80
ENDBRANCH  76  79
ENDBRANCH  74  76
ENDBRANCH  72  74
ENDBRANCH  70  71
ENDBRANCH   1  69
TORSDOF 17
ENDMDL
MODEL 22
REMARK VINA RESULT:    -7.019      2.260     11.247
REMARK INTER + INTRA:         -29.614
REMARK INTER:                 -22.677
REMARK INTRA:                  -6.937
REMARK UNBOUND:                -8.643
REMARK SMILES C=C1C(=O)N[C@H](C)C(=O)N[C@@H](CC(C)C)C(=O)N[C@@H](C(=O)O)[C@H](C)C(=O)N[C@@H](CCCN=C(N)N)C(=O)N[C@@H](/C=C/C(C)=C/[C@H](C)[C@H](Cc2ccccc2)OC)[C@H](C)C(=O)N[C@@H](C(=O)O)CCC(=O)N1C
REMARK SMILES IDX 39 1 38 2 37 3 36 4 28 6 27 7 25 8 26 9 23 11 24 12 19 13
REMARK SMILES IDX 18 14 16 15 17 16 11 18 10 19 8 20 9 21 12 24 13 25 14 26
REMARK SMILES IDX 15 27 20 28 21 29 22 30 29 32 30 33 31 34 32 35 33 36 34 37
REMARK SMILES IDX 35 38 57 43 58 44 59 45 60 46 61 47 62 49 66 50 67 51 68 52
REMARK SMILES IDX 69 53 70 54 71 55 2 56 1 57 3 58 4 59 5 60 6 62 7 63 63 65
REMARK SMILES IDX 64 66 65 67 40 69 41 70 42 71 44 72 43 73 45 74 46 75 47 76
REMARK SMILES IDX 55 77 56 78 48 79 49 80 50 81 54 82 51 83 53 84 52 85
REMARK H PARENT 38 5 27 10 18 17 10 22 22 31 34 39 34 40 35 41 35 42 61 48
REMARK H PARENT 5 61 65 68
REMARK Flexibility Score:  369.900
ROOT
ATOM      1  C   UNL     1     -11.774   6.201   6.883  1.00  0.00     0.117 C 
ENDROOT
BRANCH   1   2
ATOM      2  N   UNL     1     -13.021   5.561   7.302  1.00  0.00    -0.347 N 
ATOM      3  O   UNL     1     -13.857   7.293   8.556  1.00  0.00    -0.273 OA
ATOM      4  C   UNL     1     -14.009   6.194   8.033  1.00  0.00     0.243 C 
ATOM      5  H   UNL     1     -13.214   4.615   7.009  1.00  0.00     0.164 HD
BRANCH   4   6
ATOM      6  C   UNL     1     -15.266   5.319   8.271  1.00  0.00     0.171 C 
BRANCH   6   7
ATOM      7  N   UNL     1     -14.934   3.892   8.127  1.00  0.00    -0.344 N 
ATOM      8  C   UNL     1     -15.881   2.991   7.689  1.00  0.00     0.226 C 
ATOM      9  O   UNL     1     -17.031   3.319   7.423  1.00  0.00    -0.275 OA
ATOM     10  H   UNL     1     -14.014   3.572   8.402  1.00  0.00     0.164 HD
BRANCH   8  11
ATOM     11  C   UNL     1     -15.370   1.569   7.542  1.00  0.00     0.109 C 
ATOM     12  C   UNL     1     -13.882   1.506   7.888  1.00  0.00     0.021 C 
BRANCH  11  13
ATOM     13  C   UNL     1     -16.264   0.607   8.350  1.00  0.00     0.204 C 
BRANCH  13  14
ATOM     14  N   UNL     1     -16.756   1.220   9.587  1.00  0.00    -0.340 N 
ATOM     15  C   UNL     1     -16.296   0.860  10.835  1.00  0.00     0.243 C 
ATOM     16  O   UNL     1     -15.393   0.040  10.995  1.00  0.00    -0.273 OA
ATOM     17  H   UNL     1     -17.604   1.791   9.537  1.00  0.00     0.164 HD
BRANCH  15  18
ATOM     18  C   UNL     1     -17.104   1.487  11.998  1.00  0.00     0.171 C 
BRANCH  18  19
ATOM     19  N   UNL     1     -17.877   0.404  12.602  1.00  0.00    -0.343 N 
ATOM     20  C   UNL     1     -19.002  -0.118  11.992  1.00  0.00     0.242 CG0
ATOM     21  O   UNL     1     -19.480   0.392  10.982  1.00  0.00    -0.273 OA
ATOM     22  H   UNL     1     -17.587   0.025  13.497  1.00  0.00     0.164 HD
ATOM     23  G   UNL     1     -19.638  -1.307  12.740  1.00  0.00     0.000 G0
ENDBRANCH  18  19
BRANCH  18  24
ATOM     24  C   UNL     1     -16.166   2.145  13.017  1.00  0.00     0.038 C 
BRANCH  24  25
ATOM     25  C   UNL     1     -15.362   3.345  12.473  1.00  0.00    -0.015 C 
ATOM     26  C   UNL     1     -13.852   3.133  12.577  1.00  0.00     0.007 C 
ATOM     27  C   UNL     1     -15.759   4.615  13.230  1.00  0.00     0.007 C 
ENDBRANCH  24  25
ENDBRANCH  18  24
ENDBRANCH  15  18
ENDBRANCH  13  14
BRANCH  13  28
ATOM     28  C   UNL     1     -17.487   0.120   7.567  1.00  0.00     0.327 C 
ATOM     29  O   UNL     1     -17.675   0.247   6.367  1.00  0.00    -0.250 OA
BRANCH  28  30
ATOM     30  O   UNL     1     -18.452  -0.391   8.358  1.00  0.00    -0.480 OA
ATOM     31  H   UNL     1     -18.759  -1.189   7.880  1.00  0.00     0.296 HD
ENDBRANCH  28  30
ENDBRANCH  13  28
ENDBRANCH  11  13
ENDBRANCH   8  11
ENDBRANCH   6   7
BRANCH   6  32
ATOM     32  C   UNL     1     -15.827   5.613   9.666  1.00  0.00     0.037 C 
BRANCH  32  33
ATOM     33  C   UNL     1     -16.730   6.854   9.677  1.00  0.00     0.026 C 
BRANCH  33  34
ATOM     34  C   UNL     1     -17.617   6.944   8.435  1.00  0.00     0.146 C 
BRANCH  34  35
ATOM     35  N   UNL     1     -18.161   8.291   8.342  1.00  0.00    -0.254 NA
ATOM     36  C   UNL     1     -17.457   9.201   7.779  1.00  0.00     0.185 C 
ATOM     37  N   UNL     1     -17.951  10.446   7.684  1.00  0.00    -0.370 N 
ATOM     38  N   UNL     1     -16.230   9.105   7.236  1.00  0.00    -0.370 N 
ATOM     39  H   UNL     1     -18.877  10.597   8.063  1.00  0.00     0.159 HD
ATOM     40  H   UNL     1     -17.542  11.164   7.111  1.00  0.00     0.159 HD
ATOM     41  H   UNL     1     -15.723   9.925   6.948  1.00  0.00     0.159 HD
ATOM     42  H   UNL     1     -15.731   8.230   7.250  1.00  0.00     0.159 HD
ENDBRANCH  34  35
ENDBRANCH  33  34
ENDBRANCH  32  33
ENDBRANCH   6  32
ENDBRANCH   4   6
ENDBRANCH   1   2
BRANCH   1  43
ATOM     43  C   UNL     1     -11.949   6.719   5.426  1.00  0.00     0.102 C 
ATOM     44  C   UNL     1     -10.688   6.553   4.562  1.00  0.00     0.020 C 
BRANCH  43  45
ATOM     45  C   UNL     1     -12.530   8.137   5.412  1.00  0.00     0.225 C 
ATOM     46  O   UNL     1     -13.735   8.368   5.368  1.00  0.00    -0.275 OA
ATOM     47  N   UNL     1     -11.605   9.155   5.358  1.00  0.00    -0.342 N 
ATOM     48  H   UNL     1     -10.633   8.958   5.547  1.00  0.00     0.164 HD
BRANCH  47  49
ATOM     49  C   UNL     1     -12.014  10.563   5.375  1.00  0.00     0.192 C 
BRANCH  49  50
ATOM     50  C   UNL     1     -10.804  11.453   5.083  1.00  0.00     0.047 C 
BRANCH  50  51
ATOM     51  C   UNL     1     -10.005  10.969   3.864  1.00  0.00     0.103 C 
BRANCH  51  52
ATOM     52  C   UNL     1      -8.540  10.709   4.206  1.00  0.00     0.226 C 
ATOM     53  O   UNL     1      -8.098  11.054   5.303  1.00  0.00    -0.275 OA
BRANCH  52  54
ATOM     54  N   UNL     1      -7.788  10.004   3.247  1.00  0.00    -0.311 N 
ATOM     55  C   UNL     1      -7.951   8.554   3.075  1.00  0.00     0.153 C 
BRANCH  54  56
ATOM     56  C   UNL     1      -6.863  10.658   2.417  1.00  0.00     0.102 C 
ATOM     57  C   UNL     1      -6.980  11.924   1.982  1.00  0.00     0.043 C 
BRANCH  56  58
ATOM     58  C   UNL     1      -5.595   9.967   1.974  1.00  0.00     0.268 C 
ATOM     59  O   UNL     1      -5.417   9.560   0.834  1.00  0.00    -0.268 OA
ATOM     60  N   UNL     1      -4.642   9.902   2.962  1.00  0.00    -0.339 N 
ATOM     61  H   UNL     1      -4.871  10.253   3.884  1.00  0.00     0.164 HD
BRANCH  60  62
ATOM     62  C   UNL     1      -3.316   9.329   2.730  1.00  0.00     0.168 CG0
ATOM     63  C   UNL     1      -3.165   7.993   3.447  1.00  0.00     0.041 C 
ATOM     64  G   UNL     1      -2.234  10.325   3.195  1.00  0.00     0.000 G0
ENDBRANCH  60  62
ENDBRANCH  56  58
ENDBRANCH  54  56
ENDBRANCH  52  54
ENDBRANCH  51  52
ENDBRANCH  50  51
ENDBRANCH  49  50
BRANCH  49  65
ATOM     65  C   UNL     1     -12.623  10.959   6.729  1.00  0.00     0.326 C 
ATOM     66  O   UNL     1     -13.547  11.743   6.890  1.00  0.00    -0.250 OA
BRANCH  65  67
ATOM     67  O   UNL     1     -12.014  10.411   7.803  1.00  0.00    -0.480 OA
ATOM     68  H   UNL     1     -12.526  10.762   8.563  1.00  0.00     0.296 HD
ENDBRANCH  65  67
ENDBRANCH  49  65
ENDBRANCH  47  49
ENDBRANCH  43  45
ENDBRANCH   1  43
BRANCH   1  69
ATOM     69  C   UNL     1     -10.666   5.207   7.180  1.00  0.00    -0.001 C 
ATOM     70  C   UNL     1     -10.423   4.579   8.344  1.00  0.00     0.001 C 
BRANCH  70  71
ATOM     71  C   UNL     1      -9.363   3.605   8.612  1.00  0.00    -0.055 C 
ATOM     72  C   UNL     1      -8.203   3.738   7.935  1.00  0.00    -0.018 C 
ATOM     73  C   UNL     1      -9.639   2.530   9.631  1.00  0.00     0.044 C 
BRANCH  72  74
ATOM     74  C   UNL     1      -6.942   2.888   8.009  1.00  0.00     0.038 C 
ATOM     75  C   UNL     1      -5.747   3.848   7.980  1.00  0.00     0.015 C 
BRANCH  74  76
ATOM     76  C   UNL     1      -6.972   1.847   6.852  1.00  0.00     0.128 C 
BRANCH  76  77
ATOM     77  O   UNL     1      -7.682   0.669   7.269  1.00  0.00    -0.381 OA
ATOM     78  C   UNL     1      -8.852   0.407   6.506  1.00  0.00     0.195 C 
ENDBRANCH  76  77
BRANCH  76  79
ATOM     79  C   UNL     1      -7.491   2.415   5.507  1.00  0.00     0.068 C 
BRANCH  79  80
ATOM     80  C   UNL     1      -6.522   3.188   4.645  1.00  0.00    -0.045 A 
ATOM     81  C   UNL     1      -5.437   2.551   4.029  1.00  0.00     0.004 A 
ATOM     82  C   UNL     1      -6.679   4.571   4.471  1.00  0.00     0.004 A 
ATOM     83  C   UNL     1      -4.537   3.275   3.244  1.00  0.00     0.000 A 
ATOM     84  C   UNL     1      -5.778   5.295   3.687  1.00  0.00     0.000 A 
ATOM     85  C   UNL     1      -4.709   4.647   3.073  1.00  0.00     0.000 A 
ENDBRANCH  79  80
ENDBRANCH  76  79
ENDBRANCH  74  76
ENDBRANCH  72  74
ENDBRANCH  70  71
ENDBRANCH   1  69
TORSDOF 17
ENDMDL
MODEL 23
REMARK VINA RESULT:    -7.010      2.806     11.152
REMARK INTER + INTRA:         -29.585
REMARK INTER:                 -22.838
REMARK INTRA:                  -6.747
REMARK UNBOUND:                -8.643
REMARK SMILES C=C1C(=O)N[C@H](C)C(=O)N[C@@H](CC(C)C)C(=O)N[C@@H](C(=O)O)[C@H](C)C(=O)N[C@@H](CCCN=C(N)N)C(=O)N[C@@H](/C=C/C(C)=C/[C@H](C)[C@H](Cc2ccccc2)OC)[C@H](C)C(=O)N[C@@H](C(=O)O)CCC(=O)N1C
REMARK SMILES IDX 39 1 38 2 37 3 36 4 28 6 27 7 25 8 26 9 23 11 24 12 19 13
REMARK SMILES IDX 18 14 16 15 17 16 11 18 10 19 8 20 9 21 12 24 13 25 14 26
REMARK SMILES IDX 15 27 20 28 21 29 22 30 29 32 30 33 31 34 32 35 33 36 34 37
REMARK SMILES IDX 35 38 57 43 58 44 59 45 60 46 61 47 62 49 66 50 67 51 68 52
REMARK SMILES IDX 69 53 70 54 71 55 2 56 1 57 3 58 4 59 5 60 6 62 7 63 63 65
REMARK SMILES IDX 64 66 65 67 40 69 41 70 42 71 44 72 43 73 45 74 46 75 47 76
REMARK SMILES IDX 55 77 56 78 48 79 49 80 50 81 54 82 51 83 53 84 52 85
REMARK H PARENT 38 5 27 10 18 17 10 22 22 31 34 39 34 40 35 41 35 42 61 48
REMARK H PARENT 5 61 65 68
REMARK Flexibility Score:  369.900
ROOT
ATOM      1  C   UNL     1     -12.625   5.230   9.483  1.00  0.00     0.117 C 
ENDROOT
BRANCH   1   2
ATOM      2  N   UNL     1     -13.223   3.943   9.125  1.00  0.00    -0.347 N 
ATOM      3  O   UNL     1     -11.750   2.589  10.249  1.00  0.00    -0.273 OA
ATOM      4  C   UNL     1     -12.790   2.726   9.614  1.00  0.00     0.243 C 
ATOM      5  H   UNL     1     -14.034   3.925   8.524  1.00  0.00     0.164 HD
BRANCH   4   6
ATOM      6  C   UNL     1     -13.650   1.525   9.146  1.00  0.00     0.171 C 
BRANCH   6   7
ATOM      7  N   UNL     1     -15.025   1.959   8.854  1.00  0.00    -0.344 N 
ATOM      8  C   UNL     1     -16.076   1.072   8.943  1.00  0.00     0.226 C 
ATOM      9  O   UNL     1     -15.922  -0.106   9.241  1.00  0.00    -0.275 OA
ATOM     10  H   UNL     1     -15.183   2.908   8.539  1.00  0.00     0.164 HD
BRANCH   8  11
ATOM     11  C   UNL     1     -17.437   1.686   8.664  1.00  0.00     0.109 C 
ATOM     12  C   UNL     1     -18.089   0.998   7.464  1.00  0.00     0.021 C 
BRANCH  11  13
ATOM     13  C   UNL     1     -18.284   1.681   9.953  1.00  0.00     0.204 C 
BRANCH  13  14
ATOM     14  N   UNL     1     -18.910   0.378  10.197  1.00  0.00    -0.340 N 
ATOM     15  C   UNL     1     -20.246   0.134   9.965  1.00  0.00     0.243 C 
ATOM     16  O   UNL     1     -20.997   0.978   9.478  1.00  0.00    -0.273 OA
ATOM     17  H   UNL     1     -18.384  -0.313  10.739  1.00  0.00     0.164 HD
BRANCH  15  18
ATOM     18  C   UNL     1     -20.724  -1.242  10.490  1.00  0.00     0.171 C 
BRANCH  18  19
ATOM     19  N   UNL     1     -20.849  -2.114   9.324  1.00  0.00    -0.343 N 
ATOM     20  C   UNL     1     -21.978  -2.880   9.104  1.00  0.00     0.242 CG0
ATOM     21  O   UNL     1     -22.871  -2.965   9.944  1.00  0.00    -0.273 OA
ATOM     22  H   UNL     1     -20.086  -2.167   8.659  1.00  0.00     0.164 HD
ATOM     23  G   UNL     1     -21.961  -3.675   7.783  1.00  0.00     0.000 G0
ENDBRANCH  18  19
BRANCH  18  24
ATOM     24  C   UNL     1     -19.729  -1.807  11.511  1.00  0.00     0.038 C 
BRANCH  24  25
ATOM     25  C   UNL     1     -20.377  -2.434  12.764  1.00  0.00    -0.015 C 
ATOM     26  C   UNL     1     -21.053  -1.393  13.656  1.00  0.00     0.007 C 
ATOM     27  C   UNL     1     -19.317  -3.192  13.567  1.00  0.00     0.007 C 
ENDBRANCH  24  25
ENDBRANCH  18  24
ENDBRANCH  15  18
ENDBRANCH  13  14
BRANCH  13  28
ATOM     28  C   UNL     1     -17.480   2.040  11.205  1.00  0.00     0.327 C 
ATOM     29  O   UNL     1     -16.703   2.976  11.322  1.00  0.00    -0.250 OA
BRANCH  28  30
ATOM     30  O   UNL     1     -17.610   1.134  12.195  1.00  0.00    -0.480 OA
ATOM     31  H   UNL     1     -18.288   0.510  11.864  1.00  0.00     0.296 HD
ENDBRANCH  28  30
ENDBRANCH  13  28
ENDBRANCH  11  13
ENDBRANCH   8  11
ENDBRANCH   6   7
BRANCH   6  32
ATOM     32  C   UNL     1     -13.001   0.893   7.909  1.00  0.00     0.037 C 
BRANCH  32  33
ATOM     33  C   UNL     1     -12.873  -0.632   8.037  1.00  0.00     0.026 C 
BRANCH  33  34
ATOM     34  C   UNL     1     -11.540  -1.154   7.502  1.00  0.00     0.146 C 
BRANCH  34  35
ATOM     35  N   UNL     1     -10.456  -0.509   8.230  1.00  0.00    -0.254 NA
ATOM     36  C   UNL     1      -9.257  -0.913   8.033  1.00  0.00     0.185 C 
ATOM     37  N   UNL     1      -8.250  -0.322   8.695  1.00  0.00    -0.370 N 
ATOM     38  N   UNL     1      -8.818  -1.892   7.222  1.00  0.00    -0.370 N 
ATOM     39  H   UNL     1      -8.499   0.434   9.319  1.00  0.00     0.159 HD
ATOM     40  H   UNL     1      -7.280  -0.460   8.470  1.00  0.00     0.159 HD
ATOM     41  H   UNL     1      -7.864  -2.211   7.258  1.00  0.00     0.159 HD
ATOM     42  H   UNL     1      -9.468  -2.434   6.674  1.00  0.00     0.159 HD
ENDBRANCH  34  35
ENDBRANCH  33  34
ENDBRANCH  32  33
ENDBRANCH   6  32
ENDBRANCH   4   6
ENDBRANCH   1   2
BRANCH   1  43
ATOM     43  C   UNL     1     -13.759   6.193   9.939  1.00  0.00     0.102 C 
ATOM     44  C   UNL     1     -14.393   5.799  11.283  1.00  0.00     0.020 C 
BRANCH  43  45
ATOM     45  C   UNL     1     -14.774   6.419   8.814  1.00  0.00     0.225 C 
ATOM     46  O   UNL     1     -15.046   5.565   7.975  1.00  0.00    -0.275 OA
ATOM     47  N   UNL     1     -15.305   7.686   8.741  1.00  0.00    -0.342 N 
ATOM     48  H   UNL     1     -15.190   8.322   9.517  1.00  0.00     0.164 HD
BRANCH  47  49
ATOM     49  C   UNL     1     -16.315   8.037   7.738  1.00  0.00     0.192 C 
BRANCH  49  50
ATOM     50  C   UNL     1     -16.068   9.461   7.235  1.00  0.00     0.047 C 
BRANCH  50  51
ATOM     51  C   UNL     1     -15.004   9.512   6.130  1.00  0.00     0.103 C 
BRANCH  51  52
ATOM     52  C   UNL     1     -13.872  10.480   6.468  1.00  0.00     0.226 C 
ATOM     53  O   UNL     1     -14.108  11.687   6.558  1.00  0.00    -0.275 OA
BRANCH  52  54
ATOM     54  N   UNL     1     -12.615   9.907   6.736  1.00  0.00    -0.311 N 
ATOM     55  C   UNL     1     -12.206   9.590   8.111  1.00  0.00     0.153 C 
BRANCH  54  56
ATOM     56  C   UNL     1     -11.710   9.612   5.703  1.00  0.00     0.102 C 
ATOM     57  C   UNL     1     -11.533   8.396   5.160  1.00  0.00     0.043 C 
BRANCH  56  58
ATOM     58  C   UNL     1     -10.870  10.698   5.075  1.00  0.00     0.268 C 
ATOM     59  O   UNL     1     -11.340  11.740   4.638  1.00  0.00    -0.268 OA
ATOM     60  N   UNL     1      -9.523  10.425   5.104  1.00  0.00    -0.339 N 
ATOM     61  H   UNL     1      -9.215   9.534   5.474  1.00  0.00     0.164 HD
BRANCH  60  62
ATOM     62  C   UNL     1      -8.525  11.371   4.605  1.00  0.00     0.168 CG0
ATOM     63  C   UNL     1      -7.723  10.766   3.460  1.00  0.00     0.041 C 
ATOM     64  G   UNL     1      -7.594  11.796   5.759  1.00  0.00     0.000 G0
ENDBRANCH  60  62
ENDBRANCH  56  58
ENDBRANCH  54  56
ENDBRANCH  52  54
ENDBRANCH  51  52
ENDBRANCH  50  51
ENDBRANCH  49  50
BRANCH  49  65
ATOM     65  C   UNL     1     -17.739   7.938   8.310  1.00  0.00     0.326 C 
ATOM     66  O   UNL     1     -18.417   6.923   8.357  1.00  0.00    -0.250 OA
BRANCH  65  67
ATOM     67  O   UNL     1     -18.259   9.112   8.732  1.00  0.00    -0.480 OA
ATOM     68  H   UNL     1     -19.219   8.926   8.807  1.00  0.00     0.296 HD
ENDBRANCH  65  67
ENDBRANCH  49  65
ENDBRANCH  47  49
ENDBRANCH  43  45
ENDBRANCH   1  43
BRANCH   1  69
ATOM     69  C   UNL     1     -11.749   5.631   8.310  1.00  0.00    -0.001 C 
ATOM     70  C   UNL     1     -11.015   4.823   7.525  1.00  0.00     0.001 C 
BRANCH  70  71
ATOM     71  C   UNL     1     -10.190   5.219   6.382  1.00  0.00    -0.055 C 
ATOM     72  C   UNL     1     -10.481   4.680   5.180  1.00  0.00    -0.018 C 
ATOM     73  C   UNL     1      -9.079   6.208   6.627  1.00  0.00     0.044 C 
BRANCH  72  74
ATOM     74  C   UNL     1      -9.807   4.905   3.834  1.00  0.00     0.038 C 
ATOM     75  C   UNL     1     -10.893   5.371   2.856  1.00  0.00     0.015 C 
BRANCH  74  76
ATOM     76  C   UNL     1      -9.071   3.597   3.417  1.00  0.00     0.128 C 
BRANCH  76  77
ATOM     77  O   UNL     1      -9.604   3.109   2.175  1.00  0.00    -0.381 OA
ATOM     78  C   UNL     1      -8.607   2.742   1.231  1.00  0.00     0.195 C 
ENDBRANCH  76  77
BRANCH  76  79
ATOM     79  C   UNL     1      -7.527   3.722   3.400  1.00  0.00     0.068 C 
BRANCH  79  80
ATOM     80  C   UNL     1      -6.828   4.040   4.700  1.00  0.00    -0.045 A 
ATOM     81  C   UNL     1      -5.967   5.140   4.806  1.00  0.00     0.004 A 
ATOM     82  C   UNL     1      -7.012   3.217   5.821  1.00  0.00     0.004 A 
ATOM     83  C   UNL     1      -5.313   5.419   6.008  1.00  0.00     0.000 A 
ATOM     84  C   UNL     1      -6.357   3.496   7.022  1.00  0.00     0.000 A 
ATOM     85  C   UNL     1      -5.510   4.598   7.116  1.00  0.00     0.000 A 
ENDBRANCH  79  80
ENDBRANCH  76  79
ENDBRANCH  74  76
ENDBRANCH  72  74
ENDBRANCH  70  71
ENDBRANCH   1  69
TORSDOF 17
ENDMDL
MODEL 24
REMARK VINA RESULT:    -6.955      2.370     11.283
REMARK INTER + INTRA:         -29.423
REMARK INTER:                 -23.042
REMARK INTRA:                  -6.381
REMARK UNBOUND:                -8.643
REMARK SMILES C=C1C(=O)N[C@H](C)C(=O)N[C@@H](CC(C)C)C(=O)N[C@@H](C(=O)O)[C@H](C)C(=O)N[C@@H](CCCN=C(N)N)C(=O)N[C@@H](/C=C/C(C)=C/[C@H](C)[C@H](Cc2ccccc2)OC)[C@H](C)C(=O)N[C@@H](C(=O)O)CCC(=O)N1C
REMARK SMILES IDX 39 1 38 2 37 3 36 4 28 6 27 7 25 8 26 9 23 11 24 12 19 13
REMARK SMILES IDX 18 14 16 15 17 16 11 18 10 19 8 20 9 21 12 24 13 25 14 26
REMARK SMILES IDX 15 27 20 28 21 29 22 30 29 32 30 33 31 34 32 35 33 36 34 37
REMARK SMILES IDX 35 38 57 43 58 44 59 45 60 46 61 47 62 49 66 50 67 51 68 52
REMARK SMILES IDX 69 53 70 54 71 55 2 56 1 57 3 58 4 59 5 60 6 62 7 63 63 65
REMARK SMILES IDX 64 66 65 67 40 69 41 70 42 71 44 72 43 73 45 74 46 75 47 76
REMARK SMILES IDX 55 77 56 78 48 79 49 80 50 81 54 82 51 83 53 84 52 85
REMARK H PARENT 38 5 27 10 18 17 10 22 22 31 34 39 34 40 35 41 35 42 61 48
REMARK H PARENT 5 61 65 68
REMARK Flexibility Score:  369.900
ROOT
ATOM      1  C   UNL     1     -13.381   5.466  10.088  1.00  0.00     0.117 C 
ENDROOT
BRANCH   1   2
ATOM      2  N   UNL     1     -13.741   4.112   9.665  1.00  0.00    -0.347 N 
ATOM      3  O   UNL     1     -12.407   2.959  11.134  1.00  0.00    -0.273 OA
ATOM      4  C   UNL     1     -13.293   2.963  10.286  1.00  0.00     0.243 C 
ATOM      5  H   UNL     1     -14.395   3.989   8.906  1.00  0.00     0.164 HD
BRANCH   4   6
ATOM      6  C   UNL     1     -13.893   1.661   9.696  1.00  0.00     0.171 C 
BRANCH   6   7
ATOM      7  N   UNL     1     -15.362   1.739   9.667  1.00  0.00    -0.344 N 
ATOM      8  C   UNL     1     -16.110   1.282  10.730  1.00  0.00     0.226 C 
ATOM      9  O   UNL     1     -15.605   0.776  11.725  1.00  0.00    -0.275 OA
ATOM     10  H   UNL     1     -15.819   2.088   8.834  1.00  0.00     0.164 HD
BRANCH   8  11
ATOM     11  C   UNL     1     -17.608   1.481  10.572  1.00  0.00     0.109 C 
ATOM     12  C   UNL     1     -17.924   1.999   9.169  1.00  0.00     0.021 C 
BRANCH  11  13
ATOM     13  C   UNL     1     -18.351   0.190  10.970  1.00  0.00     0.204 C 
BRANCH  13  14
ATOM     14  N   UNL     1     -18.605   0.122  12.412  1.00  0.00    -0.340 N 
ATOM     15  C   UNL     1     -18.584  -1.060  13.121  1.00  0.00     0.243 C 
ATOM     16  O   UNL     1     -18.289  -2.135  12.602  1.00  0.00    -0.273 OA
ATOM     17  H   UNL     1     -19.002   0.947  12.870  1.00  0.00     0.164 HD
BRANCH  15  18
ATOM     18  C   UNL     1     -19.084  -0.916  14.579  1.00  0.00     0.171 C 
BRANCH  18  19
ATOM     19  N   UNL     1     -19.834  -2.133  14.886  1.00  0.00    -0.343 N 
ATOM     20  C   UNL     1     -21.167  -2.096  15.245  1.00  0.00     0.242 CG0
ATOM     21  O   UNL     1     -21.749  -1.034  15.453  1.00  0.00    -0.273 OA
ATOM     22  H   UNL     1     -19.365  -3.031  14.841  1.00  0.00     0.164 HD
ATOM     23  G   UNL     1     -21.809  -3.483  15.454  1.00  0.00     0.000 G0
ENDBRANCH  18  19
BRANCH  18  24
ATOM     24  C   UNL     1     -17.905  -0.725  15.540  1.00  0.00     0.038 C 
BRANCH  24  25
ATOM     25  C   UNL     1     -17.766   0.700  16.115  1.00  0.00    -0.015 C 
ATOM     26  C   UNL     1     -19.111   1.418  16.232  1.00  0.00     0.007 C 
ATOM     27  C   UNL     1     -16.820   1.521  15.234  1.00  0.00     0.007 C 
ENDBRANCH  24  25
ENDBRANCH  18  24
ENDBRANCH  15  18
ENDBRANCH  13  14
BRANCH  13  28
ATOM     28  C   UNL     1     -19.700   0.028  10.263  1.00  0.00     0.327 C 
ATOM     29  O   UNL     1     -20.711   0.680  10.477  1.00  0.00    -0.250 OA
BRANCH  28  30
ATOM     30  O   UNL     1     -19.730  -1.020   9.415  1.00  0.00    -0.480 OA
ATOM     31  H   UNL     1     -20.662  -1.321   9.437  1.00  0.00     0.296 HD
ENDBRANCH  28  30
ENDBRANCH  13  28
ENDBRANCH  11  13
ENDBRANCH   8  11
ENDBRANCH   6   7
BRANCH   6  32
ATOM     32  C   UNL     1     -13.329   1.440   8.288  1.00  0.00     0.037 C 
BRANCH  32  33
ATOM     33  C   UNL     1     -14.436   1.335   7.230  1.00  0.00     0.026 C 
BRANCH  33  34
ATOM     34  C   UNL     1     -14.465   2.541   6.291  1.00  0.00     0.146 C 
BRANCH  34  35
ATOM     35  N   UNL     1     -15.837   3.019   6.182  1.00  0.00    -0.254 NA
ATOM     36  C   UNL     1     -16.523   2.688   5.153  1.00  0.00     0.185 C 
ATOM     37  N   UNL     1     -17.790   3.118   5.045  1.00  0.00    -0.370 N 
ATOM     38  N   UNL     1     -16.158   1.933   4.101  1.00  0.00    -0.370 N 
ATOM     39  H   UNL     1     -18.143   3.685   5.805  1.00  0.00     0.159 HD
ATOM     40  H   UNL     1     -18.441   2.764   4.365  1.00  0.00     0.159 HD
ATOM     41  H   UNL     1     -16.742   1.859   3.285  1.00  0.00     0.159 HD
ATOM     42  H   UNL     1     -15.225   1.554   4.041  1.00  0.00     0.159 HD
ENDBRANCH  34  35
ENDBRANCH  33  34
ENDBRANCH  32  33
ENDBRANCH   6  32
ENDBRANCH   4   6
ENDBRANCH   1   2
BRANCH   1  43
ATOM     43  C   UNL     1     -14.687   6.250  10.406  1.00  0.00     0.102 C 
ATOM     44  C   UNL     1     -15.492   5.650  11.571  1.00  0.00     0.020 C 
BRANCH  43  45
ATOM     45  C   UNL     1     -15.511   6.483   9.136  1.00  0.00     0.225 C 
ATOM     46  O   UNL     1     -15.893   5.572   8.407  1.00  0.00    -0.275 OA
ATOM     47  N   UNL     1     -15.723   7.801   8.802  1.00  0.00    -0.342 N 
ATOM     48  H   UNL     1     -15.538   8.526   9.481  1.00  0.00     0.164 HD
BRANCH  47  49
ATOM     49  C   UNL     1     -16.525   8.176   7.633  1.00  0.00     0.192 C 
BRANCH  49  50
ATOM     50  C   UNL     1     -15.799   9.265   6.839  1.00  0.00     0.047 C 
BRANCH  50  51
ATOM     51  C   UNL     1     -14.356   8.872   6.495  1.00  0.00     0.103 C 
BRANCH  51  52
ATOM     52  C   UNL     1     -13.353   9.943   6.918  1.00  0.00     0.226 C 
ATOM     53  O   UNL     1     -12.546   9.702   7.818  1.00  0.00    -0.275 OA
BRANCH  52  54
ATOM     54  N   UNL     1     -13.367  11.141   6.180  1.00  0.00    -0.311 N 
ATOM     55  C   UNL     1     -14.335  12.204   6.482  1.00  0.00     0.153 C 
BRANCH  54  56
ATOM     56  C   UNL     1     -12.457  11.368   5.134  1.00  0.00     0.102 C 
ATOM     57  C   UNL     1     -12.605  12.295   4.174  1.00  0.00     0.043 C 
BRANCH  56  58
ATOM     58  C   UNL     1     -11.172  10.580   5.041  1.00  0.00     0.268 C 
ATOM     59  O   UNL     1     -11.127   9.360   5.118  1.00  0.00    -0.268 OA
ATOM     60  N   UNL     1     -10.072  11.367   4.796  1.00  0.00    -0.339 N 
ATOM     61  H   UNL     1     -10.191  12.372   4.757  1.00  0.00     0.164 HD
BRANCH  60  62
ATOM     62  C   UNL     1      -8.736  10.803   4.608  1.00  0.00     0.168 CG0
ATOM     63  C   UNL     1      -7.870  11.720   3.753  1.00  0.00     0.041 C 
ATOM     64  G   UNL     1      -8.851   9.405   3.965  1.00  0.00     0.000 G0
ENDBRANCH  60  62
ENDBRANCH  56  58
ENDBRANCH  54  56
ENDBRANCH  52  54
ENDBRANCH  51  52
ENDBRANCH  50  51
ENDBRANCH  49  50
BRANCH  49  65
ATOM     65  C   UNL     1     -17.917   8.684   8.039  1.00  0.00     0.326 C 
ATOM     66  O   UNL     1     -18.230   9.856   8.189  1.00  0.00    -0.250 OA
BRANCH  65  67
ATOM     67  O   UNL     1     -18.820   7.711   8.295  1.00  0.00    -0.480 OA
ATOM     68  H   UNL     1     -18.700   7.530   9.252  1.00  0.00     0.296 HD
ENDBRANCH  65  67
ENDBRANCH  49  65
ENDBRANCH  47  49
ENDBRANCH  43  45
ENDBRANCH   1  43
BRANCH   1  69
ATOM     69  C   UNL     1     -12.441   6.006   9.026  1.00  0.00    -0.001 C 
ATOM     70  C   UNL     1     -12.198   5.487   7.809  1.00  0.00     0.001 C 
BRANCH  70  71
ATOM     71  C   UNL     1     -11.304   6.029   6.784  1.00  0.00    -0.055 C 
ATOM     72  C   UNL     1     -11.528   5.669   5.503  1.00  0.00    -0.018 C 
ATOM     73  C   UNL     1     -10.205   6.957   7.230  1.00  0.00     0.044 C 
BRANCH  72  74
ATOM     74  C   UNL     1     -10.775   6.072   4.243  1.00  0.00     0.038 C 
ATOM     75  C   UNL     1     -11.796   6.118   3.100  1.00  0.00     0.015 C 
BRANCH  74  76
ATOM     76  C   UNL     1      -9.595   5.080   4.025  1.00  0.00     0.128 C 
BRANCH  76  77
ATOM     77  O   UNL     1     -10.055   3.919   3.314  1.00  0.00    -0.381 OA
ATOM     78  C   UNL     1      -9.034   2.964   3.057  1.00  0.00     0.195 C 
ENDBRANCH  76  77
BRANCH  76  79
ATOM     79  C   UNL     1      -8.343   5.723   3.377  1.00  0.00     0.068 C 
BRANCH  79  80
ATOM     80  C   UNL     1      -7.079   5.796   4.200  1.00  0.00    -0.045 A 
ATOM     81  C   UNL     1      -7.036   5.284   5.504  1.00  0.00     0.004 A 
ATOM     82  C   UNL     1      -5.930   6.408   3.678  1.00  0.00     0.004 A 
ATOM     83  C   UNL     1      -5.868   5.369   6.263  1.00  0.00     0.000 A 
ATOM     84  C   UNL     1      -4.762   6.493   4.439  1.00  0.00     0.000 A 
ATOM     85  C   UNL     1      -4.730   5.972   5.731  1.00  0.00     0.000 A 
ENDBRANCH  79  80
ENDBRANCH  76  79
ENDBRANCH  74  76
ENDBRANCH  72  74
ENDBRANCH  70  71
ENDBRANCH   1  69
TORSDOF 17
ENDMDL
MODEL 25
REMARK VINA RESULT:    -6.943      3.092     11.967
REMARK INTER + INTRA:         -29.385
REMARK INTER:                 -22.798
REMARK INTRA:                  -6.586
REMARK UNBOUND:                -8.643
REMARK SMILES C=C1C(=O)N[C@H](C)C(=O)N[C@@H](CC(C)C)C(=O)N[C@@H](C(=O)O)[C@H](C)C(=O)N[C@@H](CCCN=C(N)N)C(=O)N[C@@H](/C=C/C(C)=C/[C@H](C)[C@H](Cc2ccccc2)OC)[C@H](C)C(=O)N[C@@H](C(=O)O)CCC(=O)N1C
REMARK SMILES IDX 39 1 38 2 37 3 36 4 28 6 27 7 25 8 26 9 23 11 24 12 19 13
REMARK SMILES IDX 18 14 16 15 17 16 11 18 10 19 8 20 9 21 12 24 13 25 14 26
REMARK SMILES IDX 15 27 20 28 21 29 22 30 29 32 30 33 31 34 32 35 33 36 34 37
REMARK SMILES IDX 35 38 57 43 58 44 59 45 60 46 61 47 62 49 66 50 67 51 68 52
REMARK SMILES IDX 69 53 70 54 71 55 2 56 1 57 3 58 4 59 5 60 6 62 7 63 63 65
REMARK SMILES IDX 64 66 65 67 40 69 41 70 42 71 44 72 43 73 45 74 46 75 47 76
REMARK SMILES IDX 55 77 56 78 48 79 49 80 50 81 54 82 51 83 53 84 52 85
REMARK H PARENT 38 5 27 10 18 17 10 22 22 31 34 39 34 40 35 41 35 42 61 48
REMARK H PARENT 5 61 65 68
REMARK Flexibility Score:  369.900
ROOT
ATOM      1  C   UNL     1     -13.720   1.883   6.176  1.00  0.00     0.117 C 
ENDROOT
BRANCH   1   2
ATOM      2  N   UNL     1     -14.886   2.256   6.977  1.00  0.00    -0.347 N 
ATOM      3  O   UNL     1     -16.331   2.683   5.246  1.00  0.00    -0.273 OA
ATOM      4  C   UNL     1     -16.130   2.538   6.447  1.00  0.00     0.243 C 
ATOM      5  H   UNL     1     -14.812   2.265   7.983  1.00  0.00     0.164 HD
BRANCH   4   6
ATOM      6  C   UNL     1     -17.215   2.819   7.518  1.00  0.00     0.171 C 
BRANCH   6   7
ATOM      7  N   UNL     1     -16.809   2.264   8.819  1.00  0.00    -0.344 N 
ATOM      8  C   UNL     1     -17.664   1.456   9.536  1.00  0.00     0.226 C 
ATOM      9  O   UNL     1     -18.793   1.180   9.147  1.00  0.00    -0.275 OA
ATOM     10  H   UNL     1     -15.909   2.524   9.204  1.00  0.00     0.164 HD
BRANCH   8  11
ATOM     11  C   UNL     1     -17.079   0.919  10.830  1.00  0.00     0.109 C 
ATOM     12  C   UNL     1     -16.117   1.941  11.437  1.00  0.00     0.021 C 
BRANCH  11  13
ATOM     13  C   UNL     1     -18.216   0.464  11.767  1.00  0.00     0.204 C 
BRANCH  13  14
ATOM     14  N   UNL     1     -18.921  -0.713  11.248  1.00  0.00    -0.340 N 
ATOM     15  C   UNL     1     -20.294  -0.823  11.248  1.00  0.00     0.243 C 
ATOM     16  O   UNL     1     -21.030   0.086  11.628  1.00  0.00    -0.273 OA
ATOM     17  H   UNL     1     -18.373  -1.557  11.060  1.00  0.00     0.164 HD
BRANCH  15  18
ATOM     18  C   UNL     1     -20.802  -2.230  10.848  1.00  0.00     0.171 C 
BRANCH  18  19
ATOM     19  N   UNL     1     -21.212  -2.894  12.083  1.00  0.00    -0.343 N 
ATOM     20  C   UNL     1     -20.693  -4.118  12.460  1.00  0.00     0.242 CG0
ATOM     21  O   UNL     1     -19.965  -4.765  11.712  1.00  0.00    -0.273 OA
ATOM     22  H   UNL     1     -21.901  -2.451  12.681  1.00  0.00     0.164 HD
ATOM     23  G   UNL     1     -21.185  -4.623  13.832  1.00  0.00     0.000 G0
ENDBRANCH  18  19
BRANCH  18  24
ATOM     24  C   UNL     1     -21.965  -2.123   9.854  1.00  0.00     0.038 C 
BRANCH  24  25
ATOM     25  C   UNL     1     -21.979  -3.210   8.758  1.00  0.00    -0.015 C 
ATOM     26  C   UNL     1     -22.818  -4.426   9.151  1.00  0.00     0.007 C 
ATOM     27  C   UNL     1     -20.545  -3.651   8.453  1.00  0.00     0.007 C 
ENDBRANCH  24  25
ENDBRANCH  18  24
ENDBRANCH  15  18
ENDBRANCH  13  14
BRANCH  13  28
ATOM     28  C   UNL     1     -17.733   0.117  13.179  1.00  0.00     0.327 C 
ATOM     29  O   UNL     1     -17.948   0.761  14.194  1.00  0.00    -0.250 OA
BRANCH  28  30
ATOM     30  O   UNL     1     -16.910  -0.951  13.209  1.00  0.00    -0.480 OA
ATOM     31  H   UNL     1     -17.503  -1.716  13.055  1.00  0.00     0.296 HD
ENDBRANCH  28  30
ENDBRANCH  13  28
ENDBRANCH  11  13
ENDBRANCH   8  11
ENDBRANCH   6   7
BRANCH   6  32
ATOM     32  C   UNL     1     -17.445   4.331   7.616  1.00  0.00     0.037 C 
BRANCH  32  33
ATOM     33  C   UNL     1     -16.867   4.923   8.909  1.00  0.00     0.026 C 
BRANCH  33  34
ATOM     34  C   UNL     1     -16.674   6.437   8.824  1.00  0.00     0.146 C 
BRANCH  34  35
ATOM     35  N   UNL     1     -17.723   6.999   7.984  1.00  0.00    -0.254 NA
ATOM     36  C   UNL     1     -17.650   8.234   7.653  1.00  0.00     0.185 C 
ATOM     37  N   UNL     1     -18.609   8.761   6.876  1.00  0.00    -0.370 N 
ATOM     38  N   UNL     1     -16.712   9.142   7.978  1.00  0.00    -0.370 N 
ATOM     39  H   UNL     1     -19.348   8.136   6.580  1.00  0.00     0.159 HD
ATOM     40  H   UNL     1     -18.535   9.661   6.434  1.00  0.00     0.159 HD
ATOM     41  H   UNL     1     -16.839  10.119   7.771  1.00  0.00     0.159 HD
ATOM     42  H   UNL     1     -15.938   8.889   8.573  1.00  0.00     0.159 HD
ENDBRANCH  34  35
ENDBRANCH  33  34
ENDBRANCH  32  33
ENDBRANCH   6  32
ENDBRANCH   4   6
ENDBRANCH   1   2
BRANCH   1  43
ATOM     43  C   UNL     1     -12.984   0.711   6.887  1.00  0.00     0.102 C 
ATOM     44  C   UNL     1     -13.803   0.073   8.021  1.00  0.00     0.020 C 
BRANCH  43  45
ATOM     45  C   UNL     1     -11.566   1.120   7.299  1.00  0.00     0.225 C 
ATOM     46  O   UNL     1     -11.324   1.778   8.307  1.00  0.00    -0.275 OA
ATOM     47  N   UNL     1     -10.571   0.784   6.410  1.00  0.00    -0.342 N 
ATOM     48  H   UNL     1     -10.762   0.120   5.673  1.00  0.00     0.164 HD
BRANCH  47  49
ATOM     49  C   UNL     1      -9.163   1.080   6.689  1.00  0.00     0.192 C 
BRANCH  49  50
ATOM     50  C   UNL     1      -8.420   1.331   5.375  1.00  0.00     0.047 C 
BRANCH  50  51
ATOM     51  C   UNL     1      -7.058   2.004   5.595  1.00  0.00     0.103 C 
BRANCH  51  52
ATOM     52  C   UNL     1      -7.174   3.526   5.659  1.00  0.00     0.226 C 
ATOM     53  O   UNL     1      -7.579   4.064   6.691  1.00  0.00    -0.275 OA
BRANCH  52  54
ATOM     54  N   UNL     1      -6.728   4.236   4.529  1.00  0.00    -0.311 N 
ATOM     55  C   UNL     1      -7.557   4.333   3.320  1.00  0.00     0.153 C 
BRANCH  54  56
ATOM     56  C   UNL     1      -5.481   4.883   4.516  1.00  0.00     0.102 C 
ATOM     57  C   UNL     1      -5.040   5.722   5.467  1.00  0.00     0.043 C 
BRANCH  56  58
ATOM     58  C   UNL     1      -4.489   4.631   3.404  1.00  0.00     0.268 C 
ATOM     59  O   UNL     1      -4.093   3.513   3.101  1.00  0.00    -0.268 OA
ATOM     60  N   UNL     1      -4.130   5.774   2.731  1.00  0.00    -0.339 N 
ATOM     61  H   UNL     1      -4.494   6.663   3.052  1.00  0.00     0.164 HD
BRANCH  60  62
ATOM     62  C   UNL     1      -3.229   5.749   1.580  1.00  0.00     0.168 CG0
ATOM     63  C   UNL     1      -3.230   7.090   0.855  1.00  0.00     0.041 C 
ATOM     64  G   UNL     1      -3.643   4.612   0.623  1.00  0.00     0.000 G0
ENDBRANCH  60  62
ENDBRANCH  56  58
ENDBRANCH  54  56
ENDBRANCH  52  54
ENDBRANCH  51  52
ENDBRANCH  50  51
ENDBRANCH  49  50
BRANCH  49  65
ATOM     65  C   UNL     1      -8.481  -0.070   7.447  1.00  0.00     0.326 C 
ATOM     66  O   UNL     1      -7.829   0.044   8.475  1.00  0.00    -0.250 OA
BRANCH  65  67
ATOM     67  O   UNL     1      -8.596  -1.281   6.858  1.00  0.00    -0.480 OA
ATOM     68  H   UNL     1      -8.119  -1.170   6.007  1.00  0.00     0.296 HD
ENDBRANCH  65  67
ENDBRANCH  49  65
ENDBRANCH  47  49
ENDBRANCH  43  45
ENDBRANCH   1  43
BRANCH   1  69
ATOM     69  C   UNL     1     -12.961   3.170   5.907  1.00  0.00    -0.001 C 
ATOM     70  C   UNL     1     -12.395   3.559   4.751  1.00  0.00     0.001 C 
BRANCH  70  71
ATOM     71  C   UNL     1     -11.684   4.814   4.498  1.00  0.00    -0.055 C 
ATOM     72  C   UNL     1     -11.545   5.675   5.528  1.00  0.00    -0.018 C 
ATOM     73  C   UNL     1     -11.150   5.051   3.110  1.00  0.00     0.044 C 
BRANCH  72  74
ATOM     74  C   UNL     1     -10.860   7.034   5.562  1.00  0.00     0.038 C 
ATOM     75  C   UNL     1      -9.354   6.779   5.700  1.00  0.00     0.015 C 
BRANCH  74  76
ATOM     76  C   UNL     1     -11.486   7.882   6.708  1.00  0.00     0.128 C 
BRANCH  76  77
ATOM     77  O   UNL     1     -11.473   9.275   6.352  1.00  0.00    -0.381 OA
ATOM     78  C   UNL     1     -12.685   9.724   5.760  1.00  0.00     0.195 C 
ENDBRANCH  76  77
BRANCH  76  79
ATOM     79  C   UNL     1     -12.885   7.393   7.161  1.00  0.00     0.068 C 
BRANCH  79  80
ATOM     80  C   UNL     1     -13.065   7.011   8.611  1.00  0.00    -0.045 A 
ATOM     81  C   UNL     1     -13.351   7.979   9.582  1.00  0.00     0.004 A 
ATOM     82  C   UNL     1     -12.919   5.674   9.013  1.00  0.00     0.004 A 
ATOM     83  C   UNL     1     -13.502   7.619  10.923  1.00  0.00     0.000 A 
ATOM     84  C   UNL     1     -13.069   5.316  10.355  1.00  0.00     0.000 A 
ATOM     85  C   UNL     1     -13.362   6.288  11.309  1.00  0.00     0.000 A 
ENDBRANCH  79  80
ENDBRANCH  76  79
ENDBRANCH  74  76
ENDBRANCH  72  74
ENDBRANCH  70  71
ENDBRANCH   1  69
TORSDOF 17
ENDMDL
MODEL 26
REMARK VINA RESULT:    -6.936      2.321     10.900
REMARK INTER + INTRA:         -29.365
REMARK INTER:                 -23.585
REMARK INTRA:                  -5.780
REMARK UNBOUND:                -8.643
REMARK SMILES C=C1C(=O)N[C@H](C)C(=O)N[C@@H](CC(C)C)C(=O)N[C@@H](C(=O)O)[C@H](C)C(=O)N[C@@H](CCCN=C(N)N)C(=O)N[C@@H](/C=C/C(C)=C/[C@H](C)[C@H](Cc2ccccc2)OC)[C@H](C)C(=O)N[C@@H](C(=O)O)CCC(=O)N1C
REMARK SMILES IDX 39 1 38 2 37 3 36 4 28 6 27 7 25 8 26 9 23 11 24 12 19 13
REMARK SMILES IDX 18 14 16 15 17 16 11 18 10 19 8 20 9 21 12 24 13 25 14 26
REMARK SMILES IDX 15 27 20 28 21 29 22 30 29 32 30 33 31 34 32 35 33 36 34 37
REMARK SMILES IDX 35 38 57 43 58 44 59 45 60 46 61 47 62 49 66 50 67 51 68 52
REMARK SMILES IDX 69 53 70 54 71 55 2 56 1 57 3 58 4 59 5 60 6 62 7 63 63 65
REMARK SMILES IDX 64 66 65 67 40 69 41 70 42 71 44 72 43 73 45 74 46 75 47 76
REMARK SMILES IDX 55 77 56 78 48 79 49 80 50 81 54 82 51 83 53 84 52 85
REMARK H PARENT 38 5 27 10 18 17 10 22 22 31 34 39 34 40 35 41 35 42 61 48
REMARK H PARENT 5 61 65 68
REMARK Flexibility Score:  369.900
ROOT
ATOM      1  C   UNL     1     -12.845   6.301   8.958  1.00  0.00     0.117 C 
ENDROOT
BRANCH   1   2
ATOM      2  N   UNL     1     -13.155   4.871   8.982  1.00  0.00    -0.347 N 
ATOM      3  O   UNL     1     -11.373   4.185  10.256  1.00  0.00    -0.273 OA
ATOM      4  C   UNL     1     -12.442   3.937   9.709  1.00  0.00     0.243 C 
ATOM      5  H   UNL     1     -13.965   4.532   8.485  1.00  0.00     0.164 HD
BRANCH   4   6
ATOM      6  C   UNL     1     -13.031   2.506   9.632  1.00  0.00     0.171 C 
BRANCH   6   7
ATOM      7  N   UNL     1     -14.497   2.558   9.509  1.00  0.00    -0.344 N 
ATOM      8  C   UNL     1     -15.302   1.889  10.405  1.00  0.00     0.226 C 
ATOM      9  O   UNL     1     -14.849   1.210  11.319  1.00  0.00    -0.275 OA
ATOM     10  H   UNL     1     -14.906   3.054   8.727  1.00  0.00     0.164 HD
BRANCH   8  11
ATOM     11  C   UNL     1     -16.790   2.086  10.177  1.00  0.00     0.109 C 
ATOM     12  C   UNL     1     -17.052   2.474   8.722  1.00  0.00     0.021 C 
BRANCH  11  13
ATOM     13  C   UNL     1     -17.561   0.843  10.665  1.00  0.00     0.204 C 
BRANCH  13  14
ATOM     14  N   UNL     1     -17.813   0.882  12.109  1.00  0.00    -0.340 N 
ATOM     15  C   UNL     1     -17.735  -0.234  12.913  1.00  0.00     0.243 C 
ATOM     16  O   UNL     1     -17.389  -1.334  12.484  1.00  0.00    -0.273 OA
ATOM     17  H   UNL     1     -18.249   1.723  12.498  1.00  0.00     0.164 HD
BRANCH  15  18
ATOM     18  C   UNL     1     -18.244   0.006  14.356  1.00  0.00     0.171 C 
BRANCH  18  19
ATOM     19  N   UNL     1     -18.825  -1.256  14.810  1.00  0.00    -0.343 N 
ATOM     20  C   UNL     1     -20.159  -1.362  15.153  1.00  0.00     0.242 CG0
ATOM     21  O   UNL     1     -20.886  -0.374  15.220  1.00  0.00    -0.273 OA
ATOM     22  H   UNL     1     -18.235  -2.078  14.883  1.00  0.00     0.164 HD
ATOM     23  G   UNL     1     -20.607  -2.789  15.532  1.00  0.00     0.000 G0
ENDBRANCH  18  19
BRANCH  18  24
ATOM     24  C   UNL     1     -17.095   0.455  15.266  1.00  0.00     0.038 C 
BRANCH  24  25
ATOM     25  C   UNL     1     -17.083   1.964  15.591  1.00  0.00    -0.015 C 
ATOM     26  C   UNL     1     -15.738   2.432  16.148  1.00  0.00     0.007 C 
ATOM     27  C   UNL     1     -18.194   2.284  16.594  1.00  0.00     0.007 C 
ENDBRANCH  24  25
ENDBRANCH  18  24
ENDBRANCH  15  18
ENDBRANCH  13  14
BRANCH  13  28
ATOM     28  C   UNL     1     -18.916   0.663   9.973  1.00  0.00     0.327 C 
ATOM     29  O   UNL     1     -19.946   1.265  10.233  1.00  0.00    -0.250 OA
BRANCH  28  30
ATOM     30  O   UNL     1     -18.922  -0.346   9.078  1.00  0.00    -0.480 OA
ATOM     31  H   UNL     1     -19.775  -0.802   9.235  1.00  0.00     0.296 HD
ENDBRANCH  28  30
ENDBRANCH  13  28
ENDBRANCH  11  13
ENDBRANCH   8  11
ENDBRANCH   6   7
BRANCH   6  32
ATOM     32  C   UNL     1     -12.408   1.768   8.441  1.00  0.00     0.037 C 
BRANCH  32  33
ATOM     33  C   UNL     1     -13.449   1.412   7.371  1.00  0.00     0.026 C 
BRANCH  33  34
ATOM     34  C   UNL     1     -13.509   2.445   6.245  1.00  0.00     0.146 C 
BRANCH  34  35
ATOM     35  N   UNL     1     -14.889   2.876   6.075  1.00  0.00    -0.254 NA
ATOM     36  C   UNL     1     -15.584   2.356   5.132  1.00  0.00     0.185 C 
ATOM     37  N   UNL     1     -16.859   2.742   4.970  1.00  0.00    -0.370 N 
ATOM     38  N   UNL     1     -15.220   1.430   4.227  1.00  0.00    -0.370 N 
ATOM     39  H   UNL     1     -17.211   3.431   5.622  1.00  0.00     0.159 HD
ATOM     40  H   UNL     1     -17.513   2.263   4.375  1.00  0.00     0.159 HD
ATOM     41  H   UNL     1     -15.815   1.203   3.447  1.00  0.00     0.159 HD
ATOM     42  H   UNL     1     -14.282   1.060   4.220  1.00  0.00     0.159 HD
ENDBRANCH  34  35
ENDBRANCH  33  34
ENDBRANCH  32  33
ENDBRANCH   6  32
ENDBRANCH   4   6
ENDBRANCH   1   2
BRANCH   1  43
ATOM     43  C   UNL     1     -14.043   7.078   9.575  1.00  0.00     0.102 C 
ATOM     44  C   UNL     1     -14.322   6.709  11.041  1.00  0.00     0.020 C 
BRANCH  43  45
ATOM     45  C   UNL     1     -15.275   6.999   8.668  1.00  0.00     0.225 C 
ATOM     46  O   UNL     1     -15.768   5.938   8.298  1.00  0.00    -0.275 OA
ATOM     47  N   UNL     1     -15.751   8.206   8.209  1.00  0.00    -0.342 N 
ATOM     48  H   UNL     1     -15.435   9.064   8.637  1.00  0.00     0.164 HD
BRANCH  47  49
ATOM     49  C   UNL     1     -16.945   8.286   7.362  1.00  0.00     0.192 C 
BRANCH  49  50
ATOM     50  C   UNL     1     -16.907   9.577   6.540  1.00  0.00     0.047 C 
BRANCH  50  51
ATOM     51  C   UNL     1     -16.270  10.740   7.313  1.00  0.00     0.103 C 
BRANCH  51  52
ATOM     52  C   UNL     1     -15.240  11.492   6.471  1.00  0.00     0.226 C 
ATOM     53  O   UNL     1     -15.224  12.724   6.484  1.00  0.00    -0.275 OA
BRANCH  52  54
ATOM     54  N   UNL     1     -14.304  10.704   5.776  1.00  0.00    -0.311 N 
ATOM     55  C   UNL     1     -14.714   9.868   4.640  1.00  0.00     0.153 C 
BRANCH  54  56
ATOM     56  C   UNL     1     -12.946  10.692   6.136  1.00  0.00     0.102 C 
ATOM     57  C   UNL     1     -12.461  10.199   7.287  1.00  0.00     0.043 C 
BRANCH  56  58
ATOM     58  C   UNL     1     -11.889  11.214   5.191  1.00  0.00     0.268 C 
ATOM     59  O   UNL     1     -12.093  12.117   4.391  1.00  0.00    -0.268 OA
ATOM     60  N   UNL     1     -10.663  10.618   5.369  1.00  0.00    -0.339 N 
ATOM     61  H   UNL     1     -10.579   9.870   6.047  1.00  0.00     0.164 HD
BRANCH  60  62
ATOM     62  C   UNL     1      -9.484  11.018   4.603  1.00  0.00     0.168 CG0
ATOM     63  C   UNL     1      -8.768   9.803   4.027  1.00  0.00     0.041 C 
ATOM     64  G   UNL     1      -8.535  11.836   5.503  1.00  0.00     0.000 G0
ENDBRANCH  60  62
ENDBRANCH  56  58
ENDBRANCH  54  56
ENDBRANCH  52  54
ENDBRANCH  51  52
ENDBRANCH  50  51
ENDBRANCH  49  50
BRANCH  49  65
ATOM     65  C   UNL     1     -18.235   8.251   8.196  1.00  0.00     0.326 C 
ATOM     66  O   UNL     1     -18.951   7.274   8.357  1.00  0.00    -0.250 OA
BRANCH  65  67
ATOM     67  O   UNL     1     -18.592   9.440   8.731  1.00  0.00    -0.480 OA
ATOM     68  H   UNL     1     -18.563   9.277   9.698  1.00  0.00     0.296 HD
ENDBRANCH  65  67
ENDBRANCH  49  65
ENDBRANCH  47  49
ENDBRANCH  43  45
ENDBRANCH   1  43
BRANCH   1  69
ATOM     69  C   UNL     1     -12.418   6.618   7.536  1.00  0.00    -0.001 C 
ATOM     70  C   UNL     1     -11.413   6.058   6.841  1.00  0.00     0.001 C 
BRANCH  70  71
ATOM     71  C   UNL     1     -11.024   6.357   5.461  1.00  0.00    -0.055 C 
ATOM     72  C   UNL     1      -9.956   5.705   4.955  1.00  0.00    -0.018 C 
ATOM     73  C   UNL     1     -11.848   7.364   4.702  1.00  0.00     0.044 C 
BRANCH  72  74
ATOM     74  C   UNL     1      -9.333   5.808   3.570  1.00  0.00     0.038 C 
ATOM     75  C   UNL     1     -10.137   4.891   2.641  1.00  0.00     0.015 C 
BRANCH  74  76
ATOM     76  C   UNL     1      -7.818   5.465   3.676  1.00  0.00     0.128 C 
BRANCH  76  77
ATOM     77  O   UNL     1      -7.120   6.523   4.355  1.00  0.00    -0.381 OA
ATOM     78  C   UNL     1      -6.280   6.070   5.408  1.00  0.00     0.195 C 
ENDBRANCH  76  77
BRANCH  76  79
ATOM     79  C   UNL     1      -7.530   4.070   4.287  1.00  0.00     0.068 C 
BRANCH  79  80
ATOM     80  C   UNL     1      -6.670   3.115   3.494  1.00  0.00    -0.045 A 
ATOM     81  C   UNL     1      -5.303   2.976   3.769  1.00  0.00     0.004 A 
ATOM     82  C   UNL     1      -7.226   2.367   2.445  1.00  0.00     0.004 A 
ATOM     83  C   UNL     1      -4.512   2.101   3.022  1.00  0.00     0.000 A 
ATOM     84  C   UNL     1      -6.433   1.493   1.698  1.00  0.00     0.000 A 
ATOM     85  C   UNL     1      -5.078   1.359   1.987  1.00  0.00     0.000 A 
ENDBRANCH  79  80
ENDBRANCH  76  79
ENDBRANCH  74  76
ENDBRANCH  72  74
ENDBRANCH  70  71
ENDBRANCH   1  69
TORSDOF 17
ENDMDL
MODEL 27
REMARK VINA RESULT:    -6.907      3.064      8.788
REMARK INTER + INTRA:         -29.279
REMARK INTER:                 -21.301
REMARK INTRA:                  -7.978
REMARK UNBOUND:                -8.643
REMARK SMILES C=C1C(=O)N[C@H](C)C(=O)N[C@@H](CC(C)C)C(=O)N[C@@H](C(=O)O)[C@H](C)C(=O)N[C@@H](CCCN=C(N)N)C(=O)N[C@@H](/C=C/C(C)=C/[C@H](C)[C@H](Cc2ccccc2)OC)[C@H](C)C(=O)N[C@@H](C(=O)O)CCC(=O)N1C
REMARK SMILES IDX 39 1 38 2 37 3 36 4 28 6 27 7 25 8 26 9 23 11 24 12 19 13
REMARK SMILES IDX 18 14 16 15 17 16 11 18 10 19 8 20 9 21 12 24 13 25 14 26
REMARK SMILES IDX 15 27 20 28 21 29 22 30 29 32 30 33 31 34 32 35 33 36 34 37
REMARK SMILES IDX 35 38 57 43 58 44 59 45 60 46 61 47 62 49 66 50 67 51 68 52
REMARK SMILES IDX 69 53 70 54 71 55 2 56 1 57 3 58 4 59 5 60 6 62 7 63 63 65
REMARK SMILES IDX 64 66 65 67 40 69 41 70 42 71 44 72 43 73 45 74 46 75 47 76
REMARK SMILES IDX 55 77 56 78 48 79 49 80 50 81 54 82 51 83 53 84 52 85
REMARK H PARENT 38 5 27 10 18 17 10 22 22 31 34 39 34 40 35 41 35 42 61 48
REMARK H PARENT 5 61 65 68
REMARK Flexibility Score:  369.900
ROOT
ATOM      1  C   UNL     1     -10.775   6.119   6.418  1.00  0.00     0.117 C 
ENDROOT
BRANCH   1   2
ATOM      2  N   UNL     1     -11.123   4.710   6.600  1.00  0.00    -0.347 N 
ATOM      3  O   UNL     1     -10.448   4.501   8.784  1.00  0.00    -0.273 OA
ATOM      4  C   UNL     1     -11.016   4.036   7.802  1.00  0.00     0.243 C 
ATOM      5  H   UNL     1     -11.514   4.193   5.827  1.00  0.00     0.164 HD
BRANCH   4   6
ATOM      6  C   UNL     1     -11.532   2.576   7.746  1.00  0.00     0.171 C 
BRANCH   6   7
ATOM      7  N   UNL     1     -12.605   2.448   6.748  1.00  0.00    -0.344 N 
ATOM      8  C   UNL     1     -13.901   2.797   7.060  1.00  0.00     0.226 C 
ATOM      9  O   UNL     1     -14.226   3.203   8.170  1.00  0.00    -0.275 OA
ATOM     10  H   UNL     1     -12.388   2.052   5.841  1.00  0.00     0.164 HD
BRANCH   8  11
ATOM     11  C   UNL     1     -14.882   2.660   5.909  1.00  0.00     0.109 C 
ATOM     12  C   UNL     1     -14.126   2.446   4.597  1.00  0.00     0.021 C 
BRANCH  11  13
ATOM     13  C   UNL     1     -15.926   1.575   6.239  1.00  0.00     0.204 C 
BRANCH  13  14
ATOM     14  N   UNL     1     -16.479   1.734   7.588  1.00  0.00    -0.340 N 
ATOM     15  C   UNL     1     -16.294   0.803   8.587  1.00  0.00     0.243 C 
ATOM     16  O   UNL     1     -15.600  -0.200   8.435  1.00  0.00    -0.273 OA
ATOM     17  H   UNL     1     -17.184   2.461   7.735  1.00  0.00     0.164 HD
BRANCH  15  18
ATOM     18  C   UNL     1     -17.140   1.080   9.854  1.00  0.00     0.171 C 
BRANCH  18  19
ATOM     19  N   UNL     1     -16.555   2.255  10.499  1.00  0.00    -0.343 N 
ATOM     20  C   UNL     1     -15.584   2.143  11.474  1.00  0.00     0.242 CG0
ATOM     21  O   UNL     1     -15.262   1.052  11.940  1.00  0.00    -0.273 OA
ATOM     22  H   UNL     1     -16.873   3.179  10.230  1.00  0.00     0.164 HD
ATOM     23  G   UNL     1     -15.031   3.492  11.980  1.00  0.00     0.000 G0
ENDBRANCH  18  19
BRANCH  18  24
ATOM     24  C   UNL     1     -18.609   1.315   9.484  1.00  0.00     0.038 C 
BRANCH  24  25
ATOM     25  C   UNL     1     -19.626   0.799  10.525  1.00  0.00    -0.015 C 
ATOM     26  C   UNL     1     -19.117  -0.427  11.282  1.00  0.00     0.007 C 
ATOM     27  C   UNL     1     -20.948   0.463   9.829  1.00  0.00     0.007 C 
ENDBRANCH  24  25
ENDBRANCH  18  24
ENDBRANCH  15  18
ENDBRANCH  13  14
BRANCH  13  28
ATOM     28  C   UNL     1     -17.106   1.556   5.264  1.00  0.00     0.327 C 
ATOM     29  O   UNL     1     -17.776   2.519   4.921  1.00  0.00    -0.250 OA
BRANCH  28  30
ATOM     30  O   UNL     1     -17.448   0.312   4.871  1.00  0.00    -0.480 OA
ATOM     31  H   UNL     1     -18.405   0.377   4.671  1.00  0.00     0.296 HD
ENDBRANCH  28  30
ENDBRANCH  13  28
ENDBRANCH  11  13
ENDBRANCH   8  11
ENDBRANCH   6   7
BRANCH   6  32
ATOM     32  C   UNL     1     -10.363   1.641   7.416  1.00  0.00     0.037 C 
BRANCH  32  33
ATOM     33  C   UNL     1      -9.526   1.299   8.656  1.00  0.00     0.026 C 
BRANCH  33  34
ATOM     34  C   UNL     1     -10.391   0.951   9.868  1.00  0.00     0.146 C 
BRANCH  34  35
ATOM     35  N   UNL     1     -10.785  -0.448   9.778  1.00  0.00    -0.254 NA
ATOM     36  C   UNL     1     -12.029  -0.743   9.850  1.00  0.00     0.185 C 
ATOM     37  N   UNL     1     -12.403  -2.028   9.763  1.00  0.00    -0.370 N 
ATOM     38  N   UNL     1     -13.084   0.077  10.008  1.00  0.00    -0.370 N 
ATOM     39  H   UNL     1     -11.665  -2.708   9.632  1.00  0.00     0.159 HD
ATOM     40  H   UNL     1     -13.357  -2.323   9.637  1.00  0.00     0.159 HD
ATOM     41  H   UNL     1     -14.004  -0.287  10.191  1.00  0.00     0.159 HD
ATOM     42  H   UNL     1     -12.950   1.072  10.104  1.00  0.00     0.159 HD
ENDBRANCH  34  35
ENDBRANCH  33  34
ENDBRANCH  32  33
ENDBRANCH   6  32
ENDBRANCH   4   6
ENDBRANCH   1   2
BRANCH   1  43
ATOM     43  C   UNL     1     -11.995   6.854   5.791  1.00  0.00     0.102 C 
ATOM     44  C   UNL     1     -11.847   7.107   4.281  1.00  0.00     0.020 C 
BRANCH  43  45
ATOM     45  C   UNL     1     -12.359   8.103   6.598  1.00  0.00     0.225 C 
ATOM     46  O   UNL     1     -11.632   8.577   7.466  1.00  0.00    -0.275 OA
ATOM     47  N   UNL     1     -13.611   8.621   6.356  1.00  0.00    -0.342 N 
ATOM     48  H   UNL     1     -14.129   8.318   5.543  1.00  0.00     0.164 HD
BRANCH  47  49
ATOM     49  C   UNL     1     -14.082   9.835   7.029  1.00  0.00     0.192 C 
BRANCH  49  50
ATOM     50  C   UNL     1     -15.598   9.758   7.228  1.00  0.00     0.047 C 
BRANCH  50  51
ATOM     51  C   UNL     1     -16.134   8.330   7.066  1.00  0.00     0.103 C 
BRANCH  51  52
ATOM     52  C   UNL     1     -16.830   7.831   8.331  1.00  0.00     0.226 C 
ATOM     53  O   UNL     1     -17.778   8.466   8.797  1.00  0.00    -0.275 OA
BRANCH  52  54
ATOM     54  N   UNL     1     -16.378   6.605   8.854  1.00  0.00    -0.311 N 
ATOM     55  C   UNL     1     -16.995   5.336   8.447  1.00  0.00     0.153 C 
BRANCH  54  56
ATOM     56  C   UNL     1     -15.320   6.548   9.776  1.00  0.00     0.102 C 
ATOM     57  C   UNL     1     -14.158   7.212   9.655  1.00  0.00     0.043 C 
BRANCH  56  58
ATOM     58  C   UNL     1     -15.440   5.737  11.045  1.00  0.00     0.268 C 
ATOM     59  O   UNL     1     -15.967   6.162  12.064  1.00  0.00    -0.268 OA
ATOM     60  N   UNL     1     -14.959   4.456  10.914  1.00  0.00    -0.339 N 
ATOM     61  H   UNL     1     -14.528   4.184  10.039  1.00  0.00     0.164 HD
BRANCH  60  62
ATOM     62  C   UNL     1     -15.035   3.481  12.001  1.00  0.00     0.168 CG0
ATOM     63  C   UNL     1     -13.674   3.289  12.659  1.00  0.00     0.041 C 
ATOM     64  G   UNL     1     -15.573   2.141  11.458  1.00  0.00     0.000 G0
ENDBRANCH  60  62
ENDBRANCH  56  58
ENDBRANCH  54  56
ENDBRANCH  52  54
ENDBRANCH  51  52
ENDBRANCH  50  51
ENDBRANCH  49  50
BRANCH  49  65
ATOM     65  C   UNL     1     -13.737  11.098   6.225  1.00  0.00     0.326 C 
ATOM     66  O   UNL     1     -14.515  12.001   5.951  1.00  0.00    -0.250 OA
BRANCH  65  67
ATOM     67  O   UNL     1     -12.471  11.141   5.756  1.00  0.00    -0.480 OA
ATOM     68  H   UNL     1     -12.431  11.994   5.274  1.00  0.00     0.296 HD
ENDBRANCH  65  67
ENDBRANCH  49  65
ENDBRANCH  47  49
ENDBRANCH  43  45
ENDBRANCH   1  43
BRANCH   1  69
ATOM     69  C   UNL     1      -9.450   6.136   5.678  1.00  0.00    -0.001 C 
ATOM     70  C   UNL     1      -8.954   5.184   4.869  1.00  0.00     0.001 C 
BRANCH  70  71
ATOM     71  C   UNL     1      -7.682   5.220   4.143  1.00  0.00    -0.055 C 
ATOM     72  C   UNL     1      -6.796   6.182   4.478  1.00  0.00    -0.018 C 
ATOM     73  C   UNL     1      -7.450   4.178   3.080  1.00  0.00     0.044 C 
BRANCH  72  74
ATOM     74  C   UNL     1      -5.413   6.459   3.906  1.00  0.00     0.038 C 
ATOM     75  C   UNL     1      -4.395   6.129   5.004  1.00  0.00     0.015 C 
BRANCH  74  76
ATOM     76  C   UNL     1      -5.368   7.929   3.394  1.00  0.00     0.128 C 
BRANCH  76  77
ATOM     77  O   UNL     1      -4.158   8.153   2.651  1.00  0.00    -0.381 OA
ATOM     78  C   UNL     1      -3.667   9.483   2.747  1.00  0.00     0.195 C 
ENDBRANCH  76  77
BRANCH  76  79
ATOM     79  C   UNL     1      -6.637   8.364   2.618  1.00  0.00     0.068 C 
BRANCH  79  80
ATOM     80  C   UNL     1      -7.516   9.423   3.239  1.00  0.00    -0.045 A 
ATOM     81  C   UNL     1      -7.215  10.784   3.098  1.00  0.00     0.004 A 
ATOM     82  C   UNL     1      -8.640   9.055   3.994  1.00  0.00     0.004 A 
ATOM     83  C   UNL     1      -8.026  11.757   3.687  1.00  0.00     0.000 A 
ATOM     84  C   UNL     1      -9.449  10.029   4.583  1.00  0.00     0.000 A 
ATOM     85  C   UNL     1      -9.143  11.379   4.428  1.00  0.00     0.000 A 
ENDBRANCH  79  80
ENDBRANCH  76  79
ENDBRANCH  74  76
ENDBRANCH  72  74
ENDBRANCH  70  71
ENDBRANCH   1  69
TORSDOF 17
ENDMDL
MODEL 28
REMARK VINA RESULT:    -6.893      2.404     11.567
REMARK INTER + INTRA:         -29.236
REMARK INTER:                 -22.225
REMARK INTRA:                  -7.011
REMARK UNBOUND:                -8.643
REMARK SMILES C=C1C(=O)N[C@H](C)C(=O)N[C@@H](CC(C)C)C(=O)N[C@@H](C(=O)O)[C@H](C)C(=O)N[C@@H](CCCN=C(N)N)C(=O)N[C@@H](/C=C/C(C)=C/[C@H](C)[C@H](Cc2ccccc2)OC)[C@H](C)C(=O)N[C@@H](C(=O)O)CCC(=O)N1C
REMARK SMILES IDX 39 1 38 2 37 3 36 4 28 6 27 7 25 8 26 9 23 11 24 12 19 13
REMARK SMILES IDX 18 14 16 15 17 16 11 18 10 19 8 20 9 21 12 24 13 25 14 26
REMARK SMILES IDX 15 27 20 28 21 29 22 30 29 32 30 33 31 34 32 35 33 36 34 37
REMARK SMILES IDX 35 38 57 43 58 44 59 45 60 46 61 47 62 49 66 50 67 51 68 52
REMARK SMILES IDX 69 53 70 54 71 55 2 56 1 57 3 58 4 59 5 60 6 62 7 63 63 65
REMARK SMILES IDX 64 66 65 67 40 69 41 70 42 71 44 72 43 73 45 74 46 75 47 76
REMARK SMILES IDX 55 77 56 78 48 79 49 80 50 81 54 82 51 83 53 84 52 85
REMARK H PARENT 38 5 27 10 18 17 10 22 22 31 34 39 34 40 35 41 35 42 61 48
REMARK H PARENT 5 61 65 68
REMARK Flexibility Score:  369.900
ROOT
ATOM      1  C   UNL     1     -13.159   6.400   8.272  1.00  0.00     0.117 C 
ENDROOT
BRANCH   1   2
ATOM      2  N   UNL     1     -13.647   5.333   9.147  1.00  0.00    -0.347 N 
ATOM      3  O   UNL     1     -12.384   5.843  10.995  1.00  0.00    -0.273 OA
ATOM      4  C   UNL     1     -13.286   5.196  10.474  1.00  0.00     0.243 C 
ATOM      5  H   UNL     1     -14.326   4.677   8.795  1.00  0.00     0.164 HD
BRANCH   4   6
ATOM      6  C   UNL     1     -14.011   4.035  11.200  1.00  0.00     0.171 C 
BRANCH   6   7
ATOM      7  N   UNL     1     -15.108   3.514  10.369  1.00  0.00    -0.344 N 
ATOM      8  C   UNL     1     -16.357   3.296  10.910  1.00  0.00     0.226 C 
ATOM      9  O   UNL     1     -16.609   3.498  12.092  1.00  0.00    -0.275 OA
ATOM     10  H   UNL     1     -14.920   3.271   9.404  1.00  0.00     0.164 HD
BRANCH   8  11
ATOM     11  C   UNL     1     -17.394   2.809   9.913  1.00  0.00     0.109 C 
ATOM     12  C   UNL     1     -17.058   3.322   8.513  1.00  0.00     0.021 C 
BRANCH  11  13
ATOM     13  C   UNL     1     -17.546   1.279  10.024  1.00  0.00     0.204 C 
BRANCH  13  14
ATOM     14  N   UNL     1     -18.044   0.868  11.340  1.00  0.00    -0.340 N 
ATOM     15  C   UNL     1     -17.367  -0.015  12.154  1.00  0.00     0.243 C 
ATOM     16  O   UNL     1     -16.266  -0.474  11.857  1.00  0.00    -0.273 OA
ATOM     17  H   UNL     1     -19.014   1.091  11.578  1.00  0.00     0.164 HD
BRANCH  15  18
ATOM     18  C   UNL     1     -18.179  -0.459  13.395  1.00  0.00     0.171 C 
BRANCH  18  19
ATOM     19  N   UNL     1     -18.230   0.690  14.296  1.00  0.00    -0.343 N 
ATOM     20  C   UNL     1     -18.182   0.543  15.669  1.00  0.00     0.242 CG0
ATOM     21  O   UNL     1     -18.229  -0.565  16.199  1.00  0.00    -0.273 OA
ATOM     22  H   UNL     1     -18.308   1.623  13.908  1.00  0.00     0.164 HD
ATOM     23  G   UNL     1     -18.167   1.872  16.452  1.00  0.00     0.000 G0
ENDBRANCH  18  19
BRANCH  18  24
ATOM     24  C   UNL     1     -19.585  -0.916  12.987  1.00  0.00     0.038 C 
BRANCH  24  25
ATOM     25  C   UNL     1     -19.692  -2.406  12.599  1.00  0.00    -0.015 C 
ATOM     26  C   UNL     1     -21.141  -2.889  12.525  1.00  0.00     0.007 C 
ATOM     27  C   UNL     1     -18.916  -3.257  13.607  1.00  0.00     0.007 C 
ENDBRANCH  24  25
ENDBRANCH  18  24
ENDBRANCH  15  18
ENDBRANCH  13  14
BRANCH  13  28
ATOM     28  C   UNL     1     -18.495   0.690   8.976  1.00  0.00     0.327 C 
ATOM     29  O   UNL     1     -18.193  -0.086   8.082  1.00  0.00    -0.250 OA
BRANCH  28  30
ATOM     30  O   UNL     1     -19.741   1.203   9.042  1.00  0.00    -0.480 OA
ATOM     31  H   UNL     1     -19.687   1.874   9.754  1.00  0.00     0.296 HD
ENDBRANCH  28  30
ENDBRANCH  13  28
ENDBRANCH  11  13
ENDBRANCH   8  11
ENDBRANCH   6   7
BRANCH   6  32
ATOM     32  C   UNL     1     -12.997   2.932  11.522  1.00  0.00     0.037 C 
BRANCH  32  33
ATOM     33  C   UNL     1     -11.971   2.741  10.397  1.00  0.00     0.026 C 
BRANCH  33  34
ATOM     34  C   UNL     1     -11.954   1.310   9.857  1.00  0.00     0.146 C 
BRANCH  34  35
ATOM     35  N   UNL     1     -13.203   1.060   9.150  1.00  0.00    -0.254 NA
ATOM     36  C   UNL     1     -13.847  -0.018   9.404  1.00  0.00     0.185 C 
ATOM     37  N   UNL     1     -15.001  -0.257   8.762  1.00  0.00    -0.370 N 
ATOM     38  N   UNL     1     -13.535  -1.007  10.260  1.00  0.00    -0.370 N 
ATOM     39  H   UNL     1     -15.310   0.449   8.106  1.00  0.00     0.159 HD
ATOM     40  H   UNL     1     -15.645  -0.982   9.027  1.00  0.00     0.159 HD
ATOM     41  H   UNL     1     -14.052  -1.871  10.269  1.00  0.00     0.159 HD
ATOM     42  H   UNL     1     -12.685  -0.968  10.800  1.00  0.00     0.159 HD
ENDBRANCH  34  35
ENDBRANCH  33  34
ENDBRANCH  32  33
ENDBRANCH   6  32
ENDBRANCH   4   6
ENDBRANCH   1   2
BRANCH   1  43
ATOM     43  C   UNL     1     -14.180   7.573   8.304  1.00  0.00     0.102 C 
ATOM     44  C   UNL     1     -15.632   7.115   8.524  1.00  0.00     0.020 C 
BRANCH  43  45
ATOM     45  C   UNL     1     -13.996   8.497   7.096  1.00  0.00     0.225 C 
ATOM     46  O   UNL     1     -14.895   8.743   6.297  1.00  0.00    -0.275 OA
ATOM     47  N   UNL     1     -12.719   8.970   6.902  1.00  0.00    -0.342 N 
ATOM     48  H   UNL     1     -12.036   8.885   7.641  1.00  0.00     0.164 HD
BRANCH  47  49
ATOM     49  C   UNL     1     -12.402   9.892   5.807  1.00  0.00     0.192 C 
BRANCH  49  50
ATOM     50  C   UNL     1     -10.889  10.122   5.751  1.00  0.00     0.047 C 
BRANCH  50  51
ATOM     51  C   UNL     1     -10.133   8.898   5.216  1.00  0.00     0.103 C 
BRANCH  51  52
ATOM     52  C   UNL     1      -8.914   9.295   4.386  1.00  0.00     0.226 C 
ATOM     53  O   UNL     1      -8.380  10.390   4.572  1.00  0.00    -0.275 OA
BRANCH  52  54
ATOM     54  N   UNL     1      -8.421   8.326   3.493  1.00  0.00    -0.311 N 
ATOM     55  C   UNL     1      -9.230   7.864   2.357  1.00  0.00     0.153 C 
BRANCH  54  56
ATOM     56  C   UNL     1      -7.140   7.770   3.649  1.00  0.00     0.102 C 
ATOM     57  C   UNL     1      -6.862   6.672   4.370  1.00  0.00     0.043 C 
BRANCH  56  58
ATOM     58  C   UNL     1      -5.944   8.369   2.948  1.00  0.00     0.268 C 
ATOM     59  O   UNL     1      -5.984   9.436   2.349  1.00  0.00    -0.268 OA
ATOM     60  N   UNL     1      -4.797   7.629   3.108  1.00  0.00    -0.339 N 
ATOM     61  H   UNL     1      -4.850   6.751   3.609  1.00  0.00     0.164 HD
BRANCH  60  62
ATOM     62  C   UNL     1      -3.510   8.060   2.564  1.00  0.00     0.168 CG0
ATOM     63  C   UNL     1      -3.223   7.379   1.231  1.00  0.00     0.041 C 
ATOM     64  G   UNL     1      -2.392   7.759   3.583  1.00  0.00     0.000 G0
ENDBRANCH  60  62
ENDBRANCH  56  58
ENDBRANCH  54  56
ENDBRANCH  52  54
ENDBRANCH  51  52
ENDBRANCH  50  51
ENDBRANCH  49  50
BRANCH  49  65
ATOM     65  C   UNL     1     -13.116  11.241   5.978  1.00  0.00     0.326 C 
ATOM     66  O   UNL     1     -13.645  11.884   5.082  1.00  0.00    -0.250 OA
BRANCH  65  67
ATOM     67  O   UNL     1     -13.081  11.743   7.232  1.00  0.00    -0.480 OA
ATOM     68  H   UNL     1     -12.125  11.753   7.451  1.00  0.00     0.296 HD
ENDBRANCH  65  67
ENDBRANCH  49  65
ENDBRANCH  47  49
ENDBRANCH  43  45
ENDBRANCH   1  43
BRANCH   1  69
ATOM     69  C   UNL     1     -12.839   5.743   6.941  1.00  0.00    -0.001 C 
ATOM     70  C   UNL     1     -11.630   5.603   6.369  1.00  0.00     0.001 C 
BRANCH  70  71
ATOM     71  C   UNL     1     -11.330   4.948   5.094  1.00  0.00    -0.055 C 
ATOM     72  C   UNL     1     -10.946   3.655   5.128  1.00  0.00    -0.018 C 
ATOM     73  C   UNL     1     -11.480   5.761   3.835  1.00  0.00     0.044 C 
BRANCH  72  74
ATOM     74  C   UNL     1     -10.579   2.729   3.978  1.00  0.00     0.038 C 
ATOM     75  C   UNL     1     -11.406   1.449   4.146  1.00  0.00     0.015 C 
BRANCH  74  76
ATOM     76  C   UNL     1      -9.036   2.515   3.980  1.00  0.00     0.128 C 
BRANCH  76  77
ATOM     77  O   UNL     1      -8.378   3.686   3.469  1.00  0.00    -0.381 OA
ATOM     78  C   UNL     1      -8.721   3.993   2.124  1.00  0.00     0.195 C 
ENDBRANCH  76  77
BRANCH  76  79
ATOM     79  C   UNL     1      -8.467   2.054   5.345  1.00  0.00     0.068 C 
BRANCH  79  80
ATOM     80  C   UNL     1      -7.569   3.008   6.095  1.00  0.00    -0.045 A 
ATOM     81  C   UNL     1      -8.072   3.819   7.121  1.00  0.00     0.004 A 
ATOM     82  C   UNL     1      -6.212   3.118   5.754  1.00  0.00     0.004 A 
ATOM     83  C   UNL     1      -7.238   4.709   7.799  1.00  0.00     0.000 A 
ATOM     84  C   UNL     1      -5.378   4.009   6.433  1.00  0.00     0.000 A 
ATOM     85  C   UNL     1      -5.891   4.803   7.456  1.00  0.00     0.000 A 
ENDBRANCH  79  80
ENDBRANCH  76  79
ENDBRANCH  74  76
ENDBRANCH  72  74
ENDBRANCH  70  71
ENDBRANCH   1  69
TORSDOF 17
ENDMDL
MODEL 29
REMARK VINA RESULT:    -6.887      3.083      7.358
REMARK INTER + INTRA:         -29.219
REMARK INTER:                 -20.803
REMARK INTRA:                  -8.416
REMARK UNBOUND:                -8.643
REMARK SMILES C=C1C(=O)N[C@H](C)C(=O)N[C@@H](CC(C)C)C(=O)N[C@@H](C(=O)O)[C@H](C)C(=O)N[C@@H](CCCN=C(N)N)C(=O)N[C@@H](/C=C/C(C)=C/[C@H](C)[C@H](Cc2ccccc2)OC)[C@H](C)C(=O)N[C@@H](C(=O)O)CCC(=O)N1C
REMARK SMILES IDX 39 1 38 2 37 3 36 4 28 6 27 7 25 8 26 9 23 11 24 12 19 13
REMARK SMILES IDX 18 14 16 15 17 16 11 18 10 19 8 20 9 21 12 24 13 25 14 26
REMARK SMILES IDX 15 27 20 28 21 29 22 30 29 32 30 33 31 34 32 35 33 36 34 37
REMARK SMILES IDX 35 38 57 43 58 44 59 45 60 46 61 47 62 49 66 50 67 51 68 52
REMARK SMILES IDX 69 53 70 54 71 55 2 56 1 57 3 58 4 59 5 60 6 62 7 63 63 65
REMARK SMILES IDX 64 66 65 67 40 69 41 70 42 71 44 72 43 73 45 74 46 75 47 76
REMARK SMILES IDX 55 77 56 78 48 79 49 80 50 81 54 82 51 83 53 84 52 85
REMARK H PARENT 38 5 27 10 18 17 10 22 22 31 34 39 34 40 35 41 35 42 61 48
REMARK H PARENT 5 61 65 68
REMARK Flexibility Score:  369.900
ROOT
ATOM      1  C   UNL     1     -12.338   0.519   8.565  1.00  0.00     0.117 C 
ENDROOT
BRANCH   1   2
ATOM      2  N   UNL     1     -11.231   1.285   7.992  1.00  0.00    -0.347 N 
ATOM      3  O   UNL     1      -9.518   0.247   9.113  1.00  0.00    -0.273 OA
ATOM      4  C   UNL     1      -9.898   1.025   8.244  1.00  0.00     0.243 C 
ATOM      5  H   UNL     1     -11.429   2.021   7.331  1.00  0.00     0.164 HD
BRANCH   4   6
ATOM      6  C   UNL     1      -8.924   1.927   7.444  1.00  0.00     0.171 C 
BRANCH   6   7
ATOM      7  N   UNL     1      -9.531   2.332   6.166  1.00  0.00    -0.344 N 
ATOM      8  C   UNL     1      -8.925   2.017   4.969  1.00  0.00     0.226 C 
ATOM      9  O   UNL     1      -7.859   1.416   4.907  1.00  0.00    -0.275 OA
ATOM     10  H   UNL     1     -10.377   2.889   6.179  1.00  0.00     0.164 HD
BRANCH   8  11
ATOM     11  C   UNL     1      -9.701   2.456   3.740  1.00  0.00     0.109 C 
ATOM     12  C   UNL     1     -11.201   2.452   4.036  1.00  0.00     0.021 C 
BRANCH  11  13
ATOM     13  C   UNL     1      -9.147   3.799   3.225  1.00  0.00     0.204 C 
BRANCH  13  14
ATOM     14  N   UNL     1      -7.802   4.075   3.742  1.00  0.00    -0.340 N 
ATOM     15  C   UNL     1      -7.250   5.338   3.753  1.00  0.00     0.243 C 
ATOM     16  O   UNL     1      -7.871   6.334   3.386  1.00  0.00    -0.273 OA
ATOM     17  H   UNL     1      -7.183   3.280   3.918  1.00  0.00     0.164 HD
BRANCH  15  18
ATOM     18  C   UNL     1      -5.753   5.354   4.148  1.00  0.00     0.171 C 
BRANCH  18  19
ATOM     19  N   UNL     1      -5.062   6.154   3.138  1.00  0.00    -0.343 N 
ATOM     20  C   UNL     1      -4.057   5.625   2.352  1.00  0.00     0.242 CG0
ATOM     21  O   UNL     1      -3.605   4.501   2.555  1.00  0.00    -0.273 OA
ATOM     22  H   UNL     1      -5.321   7.126   3.011  1.00  0.00     0.164 HD
ATOM     23  G   UNL     1      -3.502   6.596   1.289  1.00  0.00     0.000 G0
ENDBRANCH  18  19
BRANCH  18  24
ATOM     24  C   UNL     1      -5.569   5.942   5.552  1.00  0.00     0.038 C 
BRANCH  24  25
ATOM     25  C   UNL     1      -5.038   4.945   6.604  1.00  0.00    -0.015 C 
ATOM     26  C   UNL     1      -5.481   3.509   6.325  1.00  0.00     0.007 C 
ATOM     27  C   UNL     1      -5.509   5.368   7.998  1.00  0.00     0.007 C 
ENDBRANCH  24  25
ENDBRANCH  18  24
ENDBRANCH  15  18
ENDBRANCH  13  14
BRANCH  13  28
ATOM     28  C   UNL     1      -9.070   3.875   1.697  1.00  0.00     0.327 C 
ATOM     29  O   UNL     1      -8.506   3.079   0.962  1.00  0.00    -0.250 OA
BRANCH  28  30
ATOM     30  O   UNL     1      -9.604   5.007   1.196  1.00  0.00    -0.480 OA
ATOM     31  H   UNL     1      -9.027   5.719   1.542  1.00  0.00     0.296 HD
ENDBRANCH  28  30
ENDBRANCH  13  28
ENDBRANCH  11  13
ENDBRANCH   8  11
ENDBRANCH   6   7
BRANCH   6  32
ATOM     32  C   UNL     1      -8.562   3.152   8.291  1.00  0.00     0.037 C 
BRANCH  32  33
ATOM     33  C   UNL     1      -9.662   4.222   8.262  1.00  0.00     0.026 C 
BRANCH  33  34
ATOM     34  C   UNL     1      -9.198   5.521   7.602  1.00  0.00     0.146 C 
BRANCH  34  35
ATOM     35  N   UNL     1      -9.682   5.550   6.228  1.00  0.00    -0.254 NA
ATOM     36  C   UNL     1     -10.338   6.575   5.829  1.00  0.00     0.185 C 
ATOM     37  N   UNL     1     -10.784   6.614   4.564  1.00  0.00    -0.370 N 
ATOM     38  N   UNL     1     -10.670   7.684   6.514  1.00  0.00    -0.370 N 
ATOM     39  H   UNL     1     -10.564   5.818   3.980  1.00  0.00     0.159 HD
ATOM     40  H   UNL     1     -11.148   7.444   4.129  1.00  0.00     0.159 HD
ATOM     41  H   UNL     1     -11.309   8.361   6.130  1.00  0.00     0.159 HD
ATOM     42  H   UNL     1     -10.413   7.785   7.483  1.00  0.00     0.159 HD
ENDBRANCH  34  35
ENDBRANCH  33  34
ENDBRANCH  32  33
ENDBRANCH   6  32
ENDBRANCH   4   6
ENDBRANCH   1   2
BRANCH   1  43
ATOM     43  C   UNL     1     -13.298   0.099   7.415  1.00  0.00     0.102 C 
ATOM     44  C   UNL     1     -12.679  -0.920   6.443  1.00  0.00     0.020 C 
BRANCH  43  45
ATOM     45  C   UNL     1     -13.902   1.327   6.726  1.00  0.00     0.225 C 
ATOM     46  O   UNL     1     -13.241   2.312   6.410  1.00  0.00    -0.275 OA
ATOM     47  N   UNL     1     -15.268   1.301   6.563  1.00  0.00    -0.342 N 
ATOM     48  H   UNL     1     -15.771   0.434   6.686  1.00  0.00     0.164 HD
BRANCH  47  49
ATOM     49  C   UNL     1     -15.979   2.392   5.888  1.00  0.00     0.192 C 
BRANCH  49  50
ATOM     50  C   UNL     1     -16.563   3.348   6.931  1.00  0.00     0.047 C 
BRANCH  50  51
ATOM     51  C   UNL     1     -16.648   2.709   8.324  1.00  0.00     0.103 C 
BRANCH  51  52
ATOM     52  C   UNL     1     -18.084   2.351   8.704  1.00  0.00     0.226 C 
ATOM     53  O   UNL     1     -18.946   3.231   8.730  1.00  0.00    -0.275 OA
BRANCH  52  54
ATOM     54  N   UNL     1     -18.350   0.988   8.933  1.00  0.00    -0.311 N 
ATOM     55  C   UNL     1     -17.966  -0.033   7.950  1.00  0.00     0.153 C 
BRANCH  54  56
ATOM     56  C   UNL     1     -18.986   0.554  10.109  1.00  0.00     0.102 C 
ATOM     57  C   UNL     1     -20.315   0.441  10.267  1.00  0.00     0.043 C 
BRANCH  56  58
ATOM     58  C   UNL     1     -18.180   0.124  11.312  1.00  0.00     0.268 C 
ATOM     59  O   UNL     1     -16.957   0.152  11.344  1.00  0.00    -0.268 OA
ATOM     60  N   UNL     1     -18.961  -0.237  12.384  1.00  0.00    -0.339 N 
ATOM     61  H   UNL     1     -19.968  -0.243  12.273  1.00  0.00     0.164 HD
BRANCH  60  62
ATOM     62  C   UNL     1     -18.386  -0.627  13.671  1.00  0.00     0.168 CG0
ATOM     63  C   UNL     1     -18.187  -2.136  13.746  1.00  0.00     0.041 C 
ATOM     64  G   UNL     1     -19.298  -0.139  14.814  1.00  0.00     0.000 G0
ENDBRANCH  60  62
ENDBRANCH  56  58
ENDBRANCH  54  56
ENDBRANCH  52  54
ENDBRANCH  51  52
ENDBRANCH  50  51
ENDBRANCH  49  50
BRANCH  49  65
ATOM     65  C   UNL     1     -17.110   1.862   4.993  1.00  0.00     0.326 C 
ATOM     66  O   UNL     1     -17.048   0.870   4.281  1.00  0.00    -0.250 OA
BRANCH  65  67
ATOM     67  O   UNL     1     -18.227   2.623   4.986  1.00  0.00    -0.480 OA
ATOM     68  H   UNL     1     -18.605   2.471   4.093  1.00  0.00     0.296 HD
ENDBRANCH  65  67
ENDBRANCH  49  65
ENDBRANCH  47  49
ENDBRANCH  43  45
ENDBRANCH   1  43
BRANCH   1  69
ATOM     69  C   UNL     1     -12.885   1.355   9.708  1.00  0.00    -0.001 C 
ATOM     70  C   UNL     1     -12.609   2.642   9.984  1.00  0.00     0.001 C 
BRANCH  70  71
ATOM     71  C   UNL     1     -13.160   3.445  11.077  1.00  0.00    -0.055 C 
ATOM     72  C   UNL     1     -14.369   4.015  10.890  1.00  0.00    -0.018 C 
ATOM     73  C   UNL     1     -12.343   3.571  12.336  1.00  0.00     0.044 C 
BRANCH  72  74
ATOM     74  C   UNL     1     -15.180   4.887  11.838  1.00  0.00     0.038 C 
ATOM     75  C   UNL     1     -16.344   4.034  12.355  1.00  0.00     0.015 C 
BRANCH  74  76
ATOM     76  C   UNL     1     -15.603   6.184  11.087  1.00  0.00     0.128 C 
BRANCH  76  77
ATOM     77  O   UNL     1     -14.779   7.285  11.505  1.00  0.00    -0.381 OA
ATOM     78  C   UNL     1     -13.457   7.239  10.985  1.00  0.00     0.195 C 
ENDBRANCH  76  77
BRANCH  76  79
ATOM     79  C   UNL     1     -15.659   6.029   9.546  1.00  0.00     0.068 C 
BRANCH  79  80
ATOM     80  C   UNL     1     -16.278   7.149   8.745  1.00  0.00    -0.045 A 
ATOM     81  C   UNL     1     -17.666   7.336   8.719  1.00  0.00     0.004 A 
ATOM     82  C   UNL     1     -15.467   8.007   7.987  1.00  0.00     0.004 A 
ATOM     83  C   UNL     1     -18.231   8.366   7.963  1.00  0.00     0.000 A 
ATOM     84  C   UNL     1     -16.033   9.036   7.231  1.00  0.00     0.000 A 
ATOM     85  C   UNL     1     -17.415   9.216   7.221  1.00  0.00     0.000 A 
ENDBRANCH  79  80
ENDBRANCH  76  79
ENDBRANCH  74  76
ENDBRANCH  72  74
ENDBRANCH  70  71
ENDBRANCH   1  69
TORSDOF 17
ENDMDL
MODEL 30
REMARK VINA RESULT:    -6.880      3.354     12.078
REMARK INTER + INTRA:         -29.198
REMARK INTER:                 -21.615
REMARK INTRA:                  -7.583
REMARK UNBOUND:                -8.643
REMARK SMILES C=C1C(=O)N[C@H](C)C(=O)N[C@@H](CC(C)C)C(=O)N[C@@H](C(=O)O)[C@H](C)C(=O)N[C@@H](CCCN=C(N)N)C(=O)N[C@@H](/C=C/C(C)=C/[C@H](C)[C@H](Cc2ccccc2)OC)[C@H](C)C(=O)N[C@@H](C(=O)O)CCC(=O)N1C
REMARK SMILES IDX 39 1 38 2 37 3 36 4 28 6 27 7 25 8 26 9 23 11 24 12 19 13
REMARK SMILES IDX 18 14 16 15 17 16 11 18 10 19 8 20 9 21 12 24 13 25 14 26
REMARK SMILES IDX 15 27 20 28 21 29 22 30 29 32 30 33 31 34 32 35 33 36 34 37
REMARK SMILES IDX 35 38 57 43 58 44 59 45 60 46 61 47 62 49 66 50 67 51 68 52
REMARK SMILES IDX 69 53 70 54 71 55 2 56 1 57 3 58 4 59 5 60 6 62 7 63 63 65
REMARK SMILES IDX 64 66 65 67 40 69 41 70 42 71 44 72 43 73 45 74 46 75 47 76
REMARK SMILES IDX 55 77 56 78 48 79 49 80 50 81 54 82 51 83 53 84 52 85
REMARK H PARENT 38 5 27 10 18 17 10 22 22 31 34 39 34 40 35 41 35 42 61 48
REMARK H PARENT 5 61 65 68
REMARK Flexibility Score:  369.900
ROOT
ATOM      1  C   UNL     1     -17.580   3.328   7.393  1.00  0.00     0.117 C 
ENDROOT
BRANCH   1   2
ATOM      2  N   UNL     1     -16.924   2.621   8.493  1.00  0.00    -0.347 N 
ATOM      3  O   UNL     1     -18.814   1.992   9.634  1.00  0.00    -0.273 OA
ATOM      4  C   UNL     1     -17.599   1.929   9.480  1.00  0.00     0.243 C 
ATOM      5  H   UNL     1     -15.916   2.583   8.525  1.00  0.00     0.164 HD
BRANCH   4   6
ATOM      6  C   UNL     1     -16.666   1.196  10.477  1.00  0.00     0.171 C 
BRANCH   6   7
ATOM      7  N   UNL     1     -17.339   0.014  11.038  1.00  0.00    -0.344 N 
ATOM      8  C   UNL     1     -17.753  -0.001  12.353  1.00  0.00     0.226 C 
ATOM      9  O   UNL     1     -17.565   0.941  13.115  1.00  0.00    -0.275 OA
ATOM     10  H   UNL     1     -17.451  -0.808  10.459  1.00  0.00     0.164 HD
BRANCH   8  11
ATOM     11  C   UNL     1     -18.479  -1.269  12.766  1.00  0.00     0.109 C 
ATOM     12  C   UNL     1     -18.155  -1.611  14.220  1.00  0.00     0.021 C 
BRANCH  11  13
ATOM     13  C   UNL     1     -19.982  -1.134  12.451  1.00  0.00     0.204 C 
BRANCH  13  14
ATOM     14  N   UNL     1     -20.489  -2.276  11.683  1.00  0.00    -0.340 N 
ATOM     15  C   UNL     1     -21.010  -2.153  10.413  1.00  0.00     0.243 C 
ATOM     16  O   UNL     1     -21.030  -1.082   9.809  1.00  0.00    -0.273 OA
ATOM     17  H   UNL     1     -20.641  -3.159  12.179  1.00  0.00     0.164 HD
BRANCH  15  18
ATOM     18  C   UNL     1     -21.671  -3.450   9.887  1.00  0.00     0.171 C 
BRANCH  18  19
ATOM     19  N   UNL     1     -23.102  -3.330  10.156  1.00  0.00    -0.343 N 
ATOM     20  C   UNL     1     -23.640  -3.640  11.391  1.00  0.00     0.242 CG0
ATOM     21  O   UNL     1     -22.963  -4.157  12.276  1.00  0.00    -0.273 OA
ATOM     22  H   UNL     1     -23.723  -3.016   9.419  1.00  0.00     0.164 HD
ATOM     23  G   UNL     1     -25.155  -3.375  11.510  1.00  0.00     0.000 G0
ENDBRANCH  18  19
BRANCH  18  24
ATOM     24  C   UNL     1     -21.394  -3.630   8.389  1.00  0.00     0.038 C 
BRANCH  24  25
ATOM     25  C   UNL     1     -20.757  -4.983   8.009  1.00  0.00    -0.015 C 
ATOM     26  C   UNL     1     -21.654  -6.171   8.358  1.00  0.00     0.007 C 
ATOM     27  C   UNL     1     -19.407  -5.132   8.715  1.00  0.00     0.007 C 
ENDBRANCH  24  25
ENDBRANCH  18  24
ENDBRANCH  15  18
ENDBRANCH  13  14
BRANCH  13  28
ATOM     28  C   UNL     1     -20.853  -1.008  13.705  1.00  0.00     0.327 C 
ATOM     29  O   UNL     1     -20.876  -0.060  14.475  1.00  0.00    -0.250 OA
BRANCH  28  30
ATOM     30  O   UNL     1     -21.552  -2.128  13.978  1.00  0.00    -0.480 OA
ATOM     31  H   UNL     1     -21.470  -2.668  13.165  1.00  0.00     0.296 HD
ENDBRANCH  28  30
ENDBRANCH  13  28
ENDBRANCH  11  13
ENDBRANCH   8  11
ENDBRANCH   6   7
BRANCH   6  32
ATOM     32  C   UNL     1     -15.372   0.799   9.757  1.00  0.00     0.037 C 
BRANCH  32  33
ATOM     33  C   UNL     1     -14.125   1.088  10.604  1.00  0.00     0.026 C 
BRANCH  33  34
ATOM     34  C   UNL     1     -14.324   2.271  11.553  1.00  0.00     0.146 C 
BRANCH  34  35
ATOM     35  N   UNL     1     -13.142   3.120  11.499  1.00  0.00    -0.254 NA
ATOM     36  C   UNL     1     -13.006   3.922  10.509  1.00  0.00     0.185 C 
ATOM     37  N   UNL     1     -11.923   4.713  10.452  1.00  0.00    -0.370 N 
ATOM     38  N   UNL     1     -13.822   4.111   9.456  1.00  0.00    -0.370 N 
ATOM     39  H   UNL     1     -11.264   4.636  11.216  1.00  0.00     0.159 HD
ATOM     40  H   UNL     1     -11.829   5.481   9.810  1.00  0.00     0.159 HD
ATOM     41  H   UNL     1     -13.536   4.671   8.670  1.00  0.00     0.159 HD
ATOM     42  H   UNL     1     -14.668   3.571   9.360  1.00  0.00     0.159 HD
ENDBRANCH  34  35
ENDBRANCH  33  34
ENDBRANCH  32  33
ENDBRANCH   6  32
ENDBRANCH   4   6
ENDBRANCH   1   2
BRANCH   1  43
ATOM     43  C   UNL     1     -17.287   2.565   6.069  1.00  0.00     0.102 C 
ATOM     44  C   UNL     1     -18.545   1.972   5.413  1.00  0.00     0.020 C 
BRANCH  43  45
ATOM     45  C   UNL     1     -16.149   1.557   6.256  1.00  0.00     0.225 C 
ATOM     46  O   UNL     1     -16.330   0.406   6.645  1.00  0.00    -0.275 OA
ATOM     47  N   UNL     1     -14.881   2.049   6.048  1.00  0.00    -0.342 N 
ATOM     48  H   UNL     1     -14.760   2.940   5.587  1.00  0.00     0.164 HD
BRANCH  47  49
ATOM     49  C   UNL     1     -13.699   1.190   6.156  1.00  0.00     0.192 C 
BRANCH  49  50
ATOM     50  C   UNL     1     -12.468   2.045   6.469  1.00  0.00     0.047 C 
BRANCH  50  51
ATOM     51  C   UNL     1     -11.697   1.530   7.692  1.00  0.00     0.103 C 
BRANCH  51  52
ATOM     52  C   UNL     1     -10.344   2.220   7.850  1.00  0.00     0.226 C 
ATOM     53  O   UNL     1     -10.283   3.326   8.391  1.00  0.00    -0.275 OA
BRANCH  52  54
ATOM     54  N   UNL     1      -9.217   1.495   7.422  1.00  0.00    -0.311 N 
ATOM     55  C   UNL     1      -9.340   0.104   6.968  1.00  0.00     0.153 C 
BRANCH  54  56
ATOM     56  C   UNL     1      -7.936   2.073   7.407  1.00  0.00     0.102 C 
ATOM     57  C   UNL     1      -7.003   1.898   8.357  1.00  0.00     0.043 C 
BRANCH  56  58
ATOM     58  C   UNL     1      -7.487   2.933   6.249  1.00  0.00     0.268 C 
ATOM     59  O   UNL     1      -7.616   4.149   6.229  1.00  0.00    -0.268 OA
ATOM     60  N   UNL     1      -6.863   2.217   5.255  1.00  0.00    -0.339 N 
ATOM     61  H   UNL     1      -6.806   1.209   5.343  1.00  0.00     0.164 HD
BRANCH  60  62
ATOM     62  C   UNL     1      -6.295   2.860   4.071  1.00  0.00     0.168 CG0
ATOM     63  C   UNL     1      -6.979   2.369   2.801  1.00  0.00     0.041 C 
ATOM     64  G   UNL     1      -4.778   2.588   4.013  1.00  0.00     0.000 G0
ENDBRANCH  60  62
ENDBRANCH  56  58
ENDBRANCH  54  56
ENDBRANCH  52  54
ENDBRANCH  51  52
ENDBRANCH  50  51
ENDBRANCH  49  50
BRANCH  49  65
ATOM     65  C   UNL     1     -13.453   0.399   4.861  1.00  0.00     0.326 C 
ATOM     66  O   UNL     1     -14.085   0.523   3.822  1.00  0.00    -0.250 OA
BRANCH  65  67
ATOM     67  O   UNL     1     -12.482  -0.537   4.948  1.00  0.00    -0.480 OA
ATOM     68  H   UNL     1     -12.764  -1.092   5.707  1.00  0.00     0.296 HD
ENDBRANCH  65  67
ENDBRANCH  49  65
ENDBRANCH  47  49
ENDBRANCH  43  45
ENDBRANCH   1  43
BRANCH   1  69
ATOM     69  C   UNL     1     -17.159   4.781   7.511  1.00  0.00    -0.001 C 
ATOM     70  C   UNL     1     -16.931   5.477   8.639  1.00  0.00     0.001 C 
BRANCH  70  71
ATOM     71  C   UNL     1     -16.503   6.874   8.740  1.00  0.00    -0.055 C 
ATOM     72  C   UNL     1     -16.891   7.721   7.764  1.00  0.00    -0.018 C 
ATOM     73  C   UNL     1     -15.668   7.268   9.930  1.00  0.00     0.044 C 
BRANCH  72  74
ATOM     74  C   UNL     1     -16.604   9.207   7.608  1.00  0.00     0.038 C 
ATOM     75  C   UNL     1     -17.916   9.881   7.188  1.00  0.00     0.015 C 
BRANCH  74  76
ATOM     76  C   UNL     1     -15.427   9.388   6.605  1.00  0.00     0.128 C 
BRANCH  76  77
ATOM     77  O   UNL     1     -15.511  10.678   5.976  1.00  0.00    -0.381 OA
ATOM     78  C   UNL     1     -14.575  11.621   6.482  1.00  0.00     0.195 C 
ENDBRANCH  76  77
BRANCH  76  79
ATOM     79  C   UNL     1     -14.031   9.109   7.217  1.00  0.00     0.068 C 
BRANCH  79  80
ATOM     80  C   UNL     1     -13.195   8.012   6.601  1.00  0.00    -0.045 A 
ATOM     81  C   UNL     1     -13.020   6.785   7.253  1.00  0.00     0.004 A 
ATOM     82  C   UNL     1     -12.555   8.219   5.369  1.00  0.00     0.004 A 
ATOM     83  C   UNL     1     -12.234   5.781   6.683  1.00  0.00     0.000 A 
ATOM     84  C   UNL     1     -11.768   7.214   4.801  1.00  0.00     0.000 A 
ATOM     85  C   UNL     1     -11.609   5.996   5.457  1.00  0.00     0.000 A 
ENDBRANCH  79  80
ENDBRANCH  76  79
ENDBRANCH  74  76
ENDBRANCH  72  74
ENDBRANCH  70  71
ENDBRANCH   1  69
TORSDOF 17
ENDMDL
MODEL 31
REMARK VINA RESULT:    -6.867      3.183     11.282
REMARK INTER + INTRA:         -29.159
REMARK INTER:                 -21.610
REMARK INTRA:                  -7.549
REMARK UNBOUND:                -8.643
REMARK SMILES C=C1C(=O)N[C@H](C)C(=O)N[C@@H](CC(C)C)C(=O)N[C@@H](C(=O)O)[C@H](C)C(=O)N[C@@H](CCCN=C(N)N)C(=O)N[C@@H](/C=C/C(C)=C/[C@H](C)[C@H](Cc2ccccc2)OC)[C@H](C)C(=O)N[C@@H](C(=O)O)CCC(=O)N1C
REMARK SMILES IDX 39 1 38 2 37 3 36 4 28 6 27 7 25 8 26 9 23 11 24 12 19 13
REMARK SMILES IDX 18 14 16 15 17 16 11 18 10 19 8 20 9 21 12 24 13 25 14 26
REMARK SMILES IDX 15 27 20 28 21 29 22 30 29 32 30 33 31 34 32 35 33 36 34 37
REMARK SMILES IDX 35 38 57 43 58 44 59 45 60 46 61 47 62 49 66 50 67 51 68 52
REMARK SMILES IDX 69 53 70 54 71 55 2 56 1 57 3 58 4 59 5 60 6 62 7 63 63 65
REMARK SMILES IDX 64 66 65 67 40 69 41 70 42 71 44 72 43 73 45 74 46 75 47 76
REMARK SMILES IDX 55 77 56 78 48 79 49 80 50 81 54 82 51 83 53 84 52 85
REMARK H PARENT 38 5 27 10 18 17 10 22 22 31 34 39 34 40 35 41 35 42 61 48
REMARK H PARENT 5 61 65 68
REMARK Flexibility Score:  369.900
ROOT
ATOM      1  C   UNL     1     -10.464   6.738   5.597  1.00  0.00     0.117 C 
ENDROOT
BRANCH   1   2
ATOM      2  N   UNL     1     -11.681   7.244   6.233  1.00  0.00    -0.347 N 
ATOM      3  O   UNL     1     -11.609   9.379   5.392  1.00  0.00    -0.273 OA
ATOM      4  C   UNL     1     -12.207   8.502   6.006  1.00  0.00     0.243 C 
ATOM      5  H   UNL     1     -12.210   6.637   6.840  1.00  0.00     0.164 HD
BRANCH   4   6
ATOM      6  C   UNL     1     -13.549   8.757   6.737  1.00  0.00     0.171 C 
BRANCH   6   7
ATOM      7  N   UNL     1     -13.611   7.981   7.986  1.00  0.00    -0.344 N 
ATOM      8  C   UNL     1     -14.801   7.435   8.416  1.00  0.00     0.226 C 
ATOM      9  O   UNL     1     -15.854   7.583   7.807  1.00  0.00    -0.275 OA
ATOM     10  H   UNL     1     -12.776   7.894   8.551  1.00  0.00     0.164 HD
BRANCH   8  11
ATOM     11  C   UNL     1     -14.689   6.618   9.691  1.00  0.00     0.109 C 
ATOM     12  C   UNL     1     -15.905   6.867  10.584  1.00  0.00     0.021 C 
BRANCH  11  13
ATOM     13  C   UNL     1     -14.434   5.138   9.342  1.00  0.00     0.204 C 
BRANCH  13  14
ATOM     14  N   UNL     1     -15.558   4.542   8.612  1.00  0.00    -0.340 N 
ATOM     15  C   UNL     1     -16.239   3.433   9.063  1.00  0.00     0.243 C 
ATOM     16  O   UNL     1     -15.992   2.900  10.143  1.00  0.00    -0.273 OA
ATOM     17  H   UNL     1     -15.714   4.840   7.645  1.00  0.00     0.164 HD
BRANCH  15  18
ATOM     18  C   UNL     1     -17.243   2.862   8.032  1.00  0.00     0.171 C 
BRANCH  18  19
ATOM     19  N   UNL     1     -18.516   2.701   8.731  1.00  0.00    -0.343 N 
ATOM     20  C   UNL     1     -19.075   1.456   8.949  1.00  0.00     0.242 CG0
ATOM     21  O   UNL     1     -18.597   0.440   8.452  1.00  0.00    -0.273 OA
ATOM     22  H   UNL     1     -19.009   3.522   9.061  1.00  0.00     0.164 HD
ATOM     23  G   UNL     1     -20.380   1.481   9.772  1.00  0.00     0.000 G0
ENDBRANCH  18  19
BRANCH  18  24
ATOM     24  C   UNL     1     -17.377   3.803   6.828  1.00  0.00     0.038 C 
BRANCH  24  25
ATOM     25  C   UNL     1     -17.220   3.118   5.454  1.00  0.00    -0.015 C 
ATOM     26  C   UNL     1     -18.256   2.017   5.227  1.00  0.00     0.007 C 
ATOM     27  C   UNL     1     -15.811   2.534   5.328  1.00  0.00     0.007 C 
ENDBRANCH  24  25
ENDBRANCH  18  24
ENDBRANCH  15  18
ENDBRANCH  13  14
BRANCH  13  28
ATOM     28  C   UNL     1     -13.177   4.927   8.492  1.00  0.00     0.327 C 
ATOM     29  O   UNL     1     -13.145   4.714   7.290  1.00  0.00    -0.250 OA
BRANCH  28  30
ATOM     30  O   UNL     1     -12.046   4.876   9.225  1.00  0.00    -0.480 OA
ATOM     31  H   UNL     1     -11.787   5.815   9.333  1.00  0.00     0.296 HD
ENDBRANCH  28  30
ENDBRANCH  13  28
ENDBRANCH  11  13
ENDBRANCH   8  11
ENDBRANCH   6   7
BRANCH   6  32
ATOM     32  C   UNL     1     -13.693  10.257   7.017  1.00  0.00     0.037 C 
BRANCH  32  33
ATOM     33  C   UNL     1     -14.756  10.913   6.125  1.00  0.00     0.026 C 
BRANCH  33  34
ATOM     34  C   UNL     1     -16.092  11.098   6.846  1.00  0.00     0.146 C 
BRANCH  34  35
ATOM     35  N   UNL     1     -17.125  10.382   6.112  1.00  0.00    -0.254 NA
ATOM     36  C   UNL     1     -18.021   9.747   6.773  1.00  0.00     0.185 C 
ATOM     37  N   UNL     1     -18.981   9.088   6.107  1.00  0.00    -0.370 N 
ATOM     38  N   UNL     1     -18.162   9.629   8.105  1.00  0.00    -0.370 N 
ATOM     39  H   UNL     1     -18.949   9.138   5.096  1.00  0.00     0.159 HD
ATOM     40  H   UNL     1     -19.807   8.717   6.544  1.00  0.00     0.159 HD
ATOM     41  H   UNL     1     -18.827   8.986   8.503  1.00  0.00     0.159 HD
ATOM     42  H   UNL     1     -17.501  10.061   8.731  1.00  0.00     0.159 HD
ENDBRANCH  34  35
ENDBRANCH  33  34
ENDBRANCH  32  33
ENDBRANCH   6  32
ENDBRANCH   4   6
ENDBRANCH   1   2
BRANCH   1  43
ATOM     43  C   UNL     1     -10.781   6.415   4.108  1.00  0.00     0.102 C 
ATOM     44  C   UNL     1     -10.934   4.911   3.827  1.00  0.00     0.020 C 
BRANCH  43  45
ATOM     45  C   UNL     1      -9.801   7.126   3.170  1.00  0.00     0.225 C 
ATOM     46  O   UNL     1      -9.685   6.842   1.981  1.00  0.00    -0.275 OA
ATOM     47  N   UNL     1      -8.978   8.054   3.766  1.00  0.00    -0.342 N 
ATOM     48  H   UNL     1      -9.187   8.382   4.698  1.00  0.00     0.164 HD
BRANCH  47  49
ATOM     49  C   UNL     1      -8.015   8.837   2.986  1.00  0.00     0.192 C 
BRANCH  49  50
ATOM     50  C   UNL     1      -6.624   8.211   3.108  1.00  0.00     0.047 C 
BRANCH  50  51
ATOM     51  C   UNL     1      -6.625   6.959   3.996  1.00  0.00     0.103 C 
BRANCH  51  52
ATOM     52  C   UNL     1      -5.230   6.628   4.522  1.00  0.00     0.226 C 
ATOM     53  O   UNL     1      -5.104   6.118   5.637  1.00  0.00    -0.275 OA
BRANCH  52  54
ATOM     54  N   UNL     1      -4.156   6.864   3.644  1.00  0.00    -0.311 N 
ATOM     55  C   UNL     1      -3.239   7.992   3.856  1.00  0.00     0.153 C 
BRANCH  54  56
ATOM     56  C   UNL     1      -3.917   6.030   2.539  1.00  0.00     0.102 C 
ATOM     57  C   UNL     1      -3.980   4.689   2.560  1.00  0.00     0.043 C 
BRANCH  56  58
ATOM     58  C   UNL     1      -3.604   6.614   1.181  1.00  0.00     0.268 C 
ATOM     59  O   UNL     1      -3.936   7.743   0.845  1.00  0.00    -0.268 OA
ATOM     60  N   UNL     1      -2.855   5.774   0.391  1.00  0.00    -0.339 N 
ATOM     61  H   UNL     1      -2.631   4.850   0.740  1.00  0.00     0.164 HD
BRANCH  60  62
ATOM     62  C   UNL     1      -2.389   6.165  -0.938  1.00  0.00     0.168 CG0
ATOM     63  C   UNL     1      -1.730   4.992  -1.654  1.00  0.00     0.041 C 
ATOM     64  G   UNL     1      -1.408   7.349  -0.814  1.00  0.00     0.000 G0
ENDBRANCH  60  62
ENDBRANCH  56  58
ENDBRANCH  54  56
ENDBRANCH  52  54
ENDBRANCH  51  52
ENDBRANCH  50  51
ENDBRANCH  49  50
BRANCH  49  65
ATOM     65  C   UNL     1      -7.959  10.299   3.457  1.00  0.00     0.326 C 
ATOM     66  O   UNL     1      -8.799  10.854   4.151  1.00  0.00    -0.250 OA
BRANCH  65  67
ATOM     67  O   UNL     1      -6.902  11.001   2.993  1.00  0.00    -0.480 OA
ATOM     68  H   UNL     1      -7.304  11.832   2.660  1.00  0.00     0.296 HD
ENDBRANCH  65  67
ENDBRANCH  49  65
ENDBRANCH  47  49
ENDBRANCH  43  45
ENDBRANCH   1  43
BRANCH   1  69
ATOM     69  C   UNL     1      -9.947   5.629   6.494  1.00  0.00    -0.001 C 
ATOM     70  C   UNL     1      -8.713   5.509   7.016  1.00  0.00     0.001 C 
BRANCH  70  71
ATOM     71  C   UNL     1      -8.232   4.444   7.899  1.00  0.00    -0.055 C 
ATOM     72  C   UNL     1      -8.916   3.281   7.910  1.00  0.00    -0.018 C 
ATOM     73  C   UNL     1      -7.003   4.719   8.725  1.00  0.00     0.044 C 
BRANCH  72  74
ATOM     74  C   UNL     1      -8.651   2.015   8.712  1.00  0.00     0.038 C 
ATOM     75  C   UNL     1      -7.399   1.357   8.119  1.00  0.00     0.015 C 
BRANCH  74  76
ATOM     76  C   UNL     1      -9.930   1.127   8.686  1.00  0.00     0.128 C 
BRANCH  76  77
ATOM     77  O   UNL     1     -11.102   1.958   8.633  1.00  0.00    -0.381 OA
ATOM     78  C   UNL     1     -12.138   1.540   9.513  1.00  0.00     0.195 C 
ENDBRANCH  76  77
BRANCH  76  79
ATOM     79  C   UNL     1      -9.917   0.038   7.584  1.00  0.00     0.068 C 
BRANCH  79  80
ATOM     80  C   UNL     1     -10.639   0.331   6.291  1.00  0.00    -0.045 A 
ATOM     81  C   UNL     1     -10.046   1.120   5.296  1.00  0.00     0.004 A 
ATOM     82  C   UNL     1     -11.935  -0.162   6.077  1.00  0.00     0.004 A 
ATOM     83  C   UNL     1     -10.726   1.399   4.109  1.00  0.00     0.000 A 
ATOM     84  C   UNL     1     -12.614   0.118   4.889  1.00  0.00     0.000 A 
ATOM     85  C   UNL     1     -12.009   0.896   3.905  1.00  0.00     0.000 A 
ENDBRANCH  79  80
ENDBRANCH  76  79
ENDBRANCH  74  76
ENDBRANCH  72  74
ENDBRANCH  70  71
ENDBRANCH   1  69
TORSDOF 17
ENDMDL
MODEL 32
REMARK VINA RESULT:    -6.825      3.078      7.522
REMARK INTER + INTRA:         -29.034
REMARK INTER:                 -22.114
REMARK INTRA:                  -6.920
REMARK UNBOUND:                -8.643
REMARK SMILES C=C1C(=O)N[C@H](C)C(=O)N[C@@H](CC(C)C)C(=O)N[C@@H](C(=O)O)[C@H](C)C(=O)N[C@@H](CCCN=C(N)N)C(=O)N[C@@H](/C=C/C(C)=C/[C@H](C)[C@H](Cc2ccccc2)OC)[C@H](C)C(=O)N[C@@H](C(=O)O)CCC(=O)N1C
REMARK SMILES IDX 39 1 38 2 37 3 36 4 28 6 27 7 25 8 26 9 23 11 24 12 19 13
REMARK SMILES IDX 18 14 16 15 17 16 11 18 10 19 8 20 9 21 12 24 13 25 14 26
REMARK SMILES IDX 15 27 20 28 21 29 22 30 29 32 30 33 31 34 32 35 33 36 34 37
REMARK SMILES IDX 35 38 57 43 58 44 59 45 60 46 61 47 62 49 66 50 67 51 68 52
REMARK SMILES IDX 69 53 70 54 71 55 2 56 1 57 3 58 4 59 5 60 6 62 7 63 63 65
REMARK SMILES IDX 64 66 65 67 40 69 41 70 42 71 44 72 43 73 45 74 46 75 47 76
REMARK SMILES IDX 55 77 56 78 48 79 49 80 50 81 54 82 51 83 53 84 52 85
REMARK H PARENT 38 5 27 10 18 17 10 22 22 31 34 39 34 40 35 41 35 42 61 48
REMARK H PARENT 5 61 65 68
REMARK Flexibility Score:  369.900
ROOT
ATOM      1  C   UNL     1     -10.315   2.417   7.643  1.00  0.00     0.117 C 
ENDROOT
BRANCH   1   2
ATOM      2  N   UNL     1      -9.517   3.121   6.638  1.00  0.00    -0.347 N 
ATOM      3  O   UNL     1      -7.675   3.543   7.940  1.00  0.00    -0.273 OA
ATOM      4  C   UNL     1      -8.220   3.548   6.842  1.00  0.00     0.243 C 
ATOM      5  H   UNL     1      -9.902   3.270   5.717  1.00  0.00     0.164 HD
BRANCH   4   6
ATOM      6  C   UNL     1      -7.571   4.189   5.588  1.00  0.00     0.171 C 
BRANCH   6   7
ATOM      7  N   UNL     1      -8.269   5.434   5.227  1.00  0.00    -0.344 N 
ATOM      8  C   UNL     1      -9.234   5.438   4.244  1.00  0.00     0.226 C 
ATOM      9  O   UNL     1      -9.540   4.432   3.615  1.00  0.00    -0.275 OA
ATOM     10  H   UNL     1      -7.996   6.298   5.678  1.00  0.00     0.164 HD
BRANCH   8  11
ATOM     11  C   UNL     1      -9.899   6.786   4.026  1.00  0.00     0.109 C 
ATOM     12  C   UNL     1     -11.382   6.705   4.390  1.00  0.00     0.021 C 
BRANCH  11  13
ATOM     13  C   UNL     1      -9.109   7.883   4.766  1.00  0.00     0.204 C 
BRANCH  13  14
ATOM     14  N   UNL     1      -8.373   8.751   3.841  1.00  0.00    -0.340 N 
ATOM     15  C   UNL     1      -7.139   8.420   3.326  1.00  0.00     0.243 C 
ATOM     16  O   UNL     1      -6.593   7.343   3.559  1.00  0.00    -0.273 OA
ATOM     17  H   UNL     1      -8.696   9.716   3.729  1.00  0.00     0.164 HD
BRANCH  15  18
ATOM     18  C   UNL     1      -6.465   9.574   2.544  1.00  0.00     0.171 C 
BRANCH  18  19
ATOM     19  N   UNL     1      -7.347  10.734   2.667  1.00  0.00    -0.343 N 
ATOM     20  C   UNL     1      -7.092  11.917   2.000  1.00  0.00     0.242 CG0
ATOM     21  O   UNL     1      -6.046  12.094   1.381  1.00  0.00    -0.273 OA
ATOM     22  H   UNL     1      -8.166  10.675   3.261  1.00  0.00     0.164 HD
ATOM     23  G   UNL     1      -8.174  13.000   2.189  1.00  0.00     0.000 G0
ENDBRANCH  18  19
BRANCH  18  24
ATOM     24  C   UNL     1      -5.069   9.868   3.107  1.00  0.00     0.038 C 
BRANCH  24  25
ATOM     25  C   UNL     1      -3.906   9.252   2.300  1.00  0.00    -0.015 C 
ATOM     26  C   UNL     1      -4.355   8.722   0.938  1.00  0.00     0.007 C 
ATOM     27  C   UNL     1      -3.263   8.121   3.107  1.00  0.00     0.007 C 
ENDBRANCH  24  25
ENDBRANCH  18  24
ENDBRANCH  15  18
ENDBRANCH  13  14
BRANCH  13  28
ATOM     28  C   UNL     1      -9.994   8.786   5.630  1.00  0.00     0.327 C 
ATOM     29  O   UNL     1     -10.355   8.563   6.775  1.00  0.00    -0.250 OA
BRANCH  28  30
ATOM     30  O   UNL     1     -10.469   9.857   4.961  1.00  0.00    -0.480 OA
ATOM     31  H   UNL     1     -11.393   9.946   5.273  1.00  0.00     0.296 HD
ENDBRANCH  28  30
ENDBRANCH  13  28
ENDBRANCH  11  13
ENDBRANCH   8  11
ENDBRANCH   6   7
BRANCH   6  32
ATOM     32  C   UNL     1      -6.088   4.456   5.870  1.00  0.00     0.037 C 
BRANCH  32  33
ATOM     33  C   UNL     1      -5.169   3.655   4.936  1.00  0.00     0.026 C 
BRANCH  33  34
ATOM     34  C   UNL     1      -5.476   3.903   3.459  1.00  0.00     0.146 C 
BRANCH  34  35
ATOM     35  N   UNL     1      -5.316   2.652   2.730  1.00  0.00    -0.254 NA
ATOM     36  C   UNL     1      -6.365   2.019   2.357  1.00  0.00     0.185 C 
ATOM     37  N   UNL     1      -6.229   0.868   1.681  1.00  0.00    -0.370 N 
ATOM     38  N   UNL     1      -7.657   2.341   2.545  1.00  0.00    -0.370 N 
ATOM     39  H   UNL     1      -5.283   0.562   1.490  1.00  0.00     0.159 HD
ATOM     40  H   UNL     1      -6.988   0.408   1.208  1.00  0.00     0.159 HD
ATOM     41  H   UNL     1      -8.394   1.690   2.326  1.00  0.00     0.159 HD
ATOM     42  H   UNL     1      -7.909   3.175   3.053  1.00  0.00     0.159 HD
ENDBRANCH  34  35
ENDBRANCH  33  34
ENDBRANCH  32  33
ENDBRANCH   6  32
ENDBRANCH   4   6
ENDBRANCH   1   2
BRANCH   1  43
ATOM     43  C   UNL     1     -11.246   1.404   6.916  1.00  0.00     0.102 C 
ATOM     44  C   UNL     1     -10.482   0.325   6.130  1.00  0.00     0.020 C 
BRANCH  43  45
ATOM     45  C   UNL     1     -12.314   2.131   6.093  1.00  0.00     0.225 C 
ATOM     46  O   UNL     1     -12.058   3.063   5.335  1.00  0.00    -0.275 OA
ATOM     47  N   UNL     1     -13.612   1.737   6.326  1.00  0.00    -0.342 N 
ATOM     48  H   UNL     1     -13.791   0.879   6.829  1.00  0.00     0.164 HD
BRANCH  47  49
ATOM     49  C   UNL     1     -14.734   2.320   5.585  1.00  0.00     0.192 C 
BRANCH  49  50
ATOM     50  C   UNL     1     -15.982   2.336   6.471  1.00  0.00     0.047 C 
BRANCH  50  51
ATOM     51  C   UNL     1     -16.778   1.026   6.379  1.00  0.00     0.103 C 
BRANCH  51  52
ATOM     52  C   UNL     1     -16.639   0.181   7.644  1.00  0.00     0.226 C 
ATOM     53  O   UNL     1     -16.256  -0.987   7.558  1.00  0.00    -0.275 OA
BRANCH  52  54
ATOM     54  N   UNL     1     -16.892   0.833   8.865  1.00  0.00    -0.311 N 
ATOM     55  C   UNL     1     -15.809   1.093   9.822  1.00  0.00     0.153 C 
BRANCH  54  56
ATOM     56  C   UNL     1     -18.184   1.264   9.211  1.00  0.00     0.102 C 
ATOM     57  C   UNL     1     -18.780   2.368   8.732  1.00  0.00     0.043 C 
BRANCH  56  58
ATOM     58  C   UNL     1     -19.044   0.454  10.152  1.00  0.00     0.268 C 
ATOM     59  O   UNL     1     -18.918   0.484  11.369  1.00  0.00    -0.268 OA
ATOM     60  N   UNL     1     -20.022  -0.265   9.507  1.00  0.00    -0.339 N 
ATOM     61  H   UNL     1     -20.054  -0.245   8.494  1.00  0.00     0.164 HD
BRANCH  60  62
ATOM     62  C   UNL     1     -21.005  -1.068  10.232  1.00  0.00     0.168 CG0
ATOM     63  C   UNL     1     -20.817  -2.553   9.945  1.00  0.00     0.041 C 
ATOM     64  G   UNL     1     -22.429  -0.615   9.848  1.00  0.00     0.000 G0
ENDBRANCH  60  62
ENDBRANCH  56  58
ENDBRANCH  54  56
ENDBRANCH  52  54
ENDBRANCH  51  52
ENDBRANCH  50  51
ENDBRANCH  49  50
BRANCH  49  65
ATOM     65  C   UNL     1     -15.033   1.535   4.298  1.00  0.00     0.326 C 
ATOM     66  O   UNL     1     -14.491   0.493   3.959  1.00  0.00    -0.250 OA
BRANCH  65  67
ATOM     67  O   UNL     1     -15.940   2.115   3.482  1.00  0.00    -0.480 OA
ATOM     68  H   UNL     1     -16.767   2.107   4.010  1.00  0.00     0.296 HD
ENDBRANCH  65  67
ENDBRANCH  49  65
ENDBRANCH  47  49
ENDBRANCH  43  45
ENDBRANCH   1  43
BRANCH   1  69
ATOM     69  C   UNL     1     -10.939   3.489   8.517  1.00  0.00    -0.001 C 
ATOM     70  C   UNL     1     -11.639   3.314   9.651  1.00  0.00     0.001 C 
BRANCH  70  71
ATOM     71  C   UNL     1     -12.218   4.359  10.498  1.00  0.00    -0.055 C 
ATOM     72  C   UNL     1     -12.489   4.047  11.783  1.00  0.00    -0.018 C 
ATOM     73  C   UNL     1     -12.462   5.710   9.878  1.00  0.00     0.044 C 
BRANCH  72  74
ATOM     74  C   UNL     1     -13.082   4.918  12.881  1.00  0.00     0.038 C 
ATOM     75  C   UNL     1     -12.056   4.970  14.021  1.00  0.00     0.015 C 
BRANCH  74  76
ATOM     76  C   UNL     1     -14.473   4.343  13.280  1.00  0.00     0.128 C 
BRANCH  76  77
ATOM     77  O   UNL     1     -14.486   4.016  14.680  1.00  0.00    -0.381 OA
ATOM     78  C   UNL     1     -15.078   2.756  14.967  1.00  0.00     0.195 C 
ENDBRANCH  76  77
BRANCH  76  79
ATOM     79  C   UNL     1     -15.667   5.239  12.863  1.00  0.00     0.068 C 
BRANCH  79  80
ATOM     80  C   UNL     1     -15.805   5.598  11.403  1.00  0.00    -0.045 A 
ATOM     81  C   UNL     1     -15.625   6.916  10.964  1.00  0.00     0.004 A 
ATOM     82  C   UNL     1     -16.145   4.614  10.462  1.00  0.00     0.004 A 
ATOM     83  C   UNL     1     -15.769   7.243   9.614  1.00  0.00     0.000 A 
ATOM     84  C   UNL     1     -16.289   4.942   9.112  1.00  0.00     0.000 A 
ATOM     85  C   UNL     1     -16.099   6.256   8.689  1.00  0.00     0.000 A 
ENDBRANCH  79  80
ENDBRANCH  76  79
ENDBRANCH  74  76
ENDBRANCH  72  74
ENDBRANCH  70  71
ENDBRANCH   1  69
TORSDOF 17
ENDMDL
MODEL 33
REMARK VINA RESULT:    -6.800      3.124      7.069
REMARK INTER + INTRA:         -28.959
REMARK INTER:                 -21.042
REMARK INTRA:                  -7.917
REMARK UNBOUND:                -8.643
REMARK SMILES C=C1C(=O)N[C@H](C)C(=O)N[C@@H](CC(C)C)C(=O)N[C@@H](C(=O)O)[C@H](C)C(=O)N[C@@H](CCCN=C(N)N)C(=O)N[C@@H](/C=C/C(C)=C/[C@H](C)[C@H](Cc2ccccc2)OC)[C@H](C)C(=O)N[C@@H](C(=O)O)CCC(=O)N1C
REMARK SMILES IDX 39 1 38 2 37 3 36 4 28 6 27 7 25 8 26 9 23 11 24 12 19 13
REMARK SMILES IDX 18 14 16 15 17 16 11 18 10 19 8 20 9 21 12 24 13 25 14 26
REMARK SMILES IDX 15 27 20 28 21 29 22 30 29 32 30 33 31 34 32 35 33 36 34 37
REMARK SMILES IDX 35 38 57 43 58 44 59 45 60 46 61 47 62 49 66 50 67 51 68 52
REMARK SMILES IDX 69 53 70 54 71 55 2 56 1 57 3 58 4 59 5 60 6 62 7 63 63 65
REMARK SMILES IDX 64 66 65 67 40 69 41 70 42 71 44 72 43 73 45 74 46 75 47 76
REMARK SMILES IDX 55 77 56 78 48 79 49 80 50 81 54 82 51 83 53 84 52 85
REMARK H PARENT 38 5 27 10 18 17 10 22 22 31 34 39 34 40 35 41 35 42 61 48
REMARK H PARENT 5 61 65 68
REMARK Flexibility Score:  369.900
ROOT
ATOM      1  C   UNL     1     -12.204   1.447   8.576  1.00  0.00     0.117 C 
ENDROOT
BRANCH   1   2
ATOM      2  N   UNL     1     -11.002   1.844   7.842  1.00  0.00    -0.347 N 
ATOM      3  O   UNL     1      -9.451   0.915   9.258  1.00  0.00    -0.273 OA
ATOM      4  C   UNL     1      -9.721   1.466   8.195  1.00  0.00     0.243 C 
ATOM      5  H   UNL     1     -11.094   2.386   6.996  1.00  0.00     0.164 HD
BRANCH   4   6
ATOM      6  C   UNL     1      -8.632   1.948   7.203  1.00  0.00     0.171 C 
BRANCH   6   7
ATOM      7  N   UNL     1      -9.252   2.487   5.982  1.00  0.00    -0.344 N 
ATOM      8  C   UNL     1      -8.575   2.466   4.782  1.00  0.00     0.226 C 
ATOM      9  O   UNL     1      -7.437   2.027   4.674  1.00  0.00    -0.275 OA
ATOM     10  H   UNL     1     -10.166   2.919   6.045  1.00  0.00     0.164 HD
BRANCH   8  11
ATOM     11  C   UNL     1      -9.370   3.008   3.606  1.00  0.00     0.109 C 
ATOM     12  C   UNL     1     -10.804   2.482   3.654  1.00  0.00     0.021 C 
BRANCH  11  13
ATOM     13  C   UNL     1      -9.243   4.544   3.555  1.00  0.00     0.204 C 
BRANCH  13  14
ATOM     14  N   UNL     1      -7.845   4.980   3.497  1.00  0.00    -0.340 N 
ATOM     15  C   UNL     1      -7.414   6.184   4.013  1.00  0.00     0.243 C 
ATOM     16  O   UNL     1      -8.165   6.951   4.614  1.00  0.00    -0.273 OA
ATOM     17  H   UNL     1      -7.206   4.466   2.885  1.00  0.00     0.164 HD
BRANCH  15  18
ATOM     18  C   UNL     1      -5.947   6.522   3.653  1.00  0.00     0.171 C 
BRANCH  18  19
ATOM     19  N   UNL     1      -5.936   7.912   3.204  1.00  0.00    -0.343 N 
ATOM     20  C   UNL     1      -4.957   8.397   2.357  1.00  0.00     0.242 CG0
ATOM     21  O   UNL     1      -3.979   7.720   2.050  1.00  0.00    -0.273 OA
ATOM     22  H   UNL     1      -6.661   8.544   3.524  1.00  0.00     0.164 HD
ATOM     23  G   UNL     1      -5.156   9.866   1.929  1.00  0.00     0.000 G0
ENDBRANCH  18  19
BRANCH  18  24
ATOM     24  C   UNL     1      -5.030   6.316   4.865  1.00  0.00     0.038 C 
BRANCH  24  25
ATOM     25  C   UNL     1      -5.439   5.151   5.791  1.00  0.00    -0.015 C 
ATOM     26  C   UNL     1      -5.124   5.432   7.261  1.00  0.00     0.007 C 
ATOM     27  C   UNL     1      -4.730   3.868   5.349  1.00  0.00     0.007 C 
ENDBRANCH  24  25
ENDBRANCH  18  24
ENDBRANCH  15  18
ENDBRANCH  13  14
BRANCH  13  28
ATOM     28  C   UNL     1      -9.964   5.169   2.357  1.00  0.00     0.327 C 
ATOM     29  O   UNL     1      -9.605   5.117   1.190  1.00  0.00    -0.250 OA
BRANCH  28  30
ATOM     30  O   UNL     1     -11.025   5.921   2.712  1.00  0.00    -0.480 OA
ATOM     31  H   UNL     1     -11.650   5.283   3.113  1.00  0.00     0.296 HD
ENDBRANCH  28  30
ENDBRANCH  13  28
ENDBRANCH  11  13
ENDBRANCH   8  11
ENDBRANCH   6   7
BRANCH   6  32
ATOM     32  C   UNL     1      -7.760   3.006   7.887  1.00  0.00     0.037 C 
BRANCH  32  33
ATOM     33  C   UNL     1      -8.599   4.068   8.611  1.00  0.00     0.026 C 
BRANCH  33  34
ATOM     34  C   UNL     1      -8.857   5.301   7.744  1.00  0.00     0.146 C 
BRANCH  34  35
ATOM     35  N   UNL     1     -10.074   5.087   6.973  1.00  0.00    -0.254 NA
ATOM     36  C   UNL     1     -10.712   6.108   6.537  1.00  0.00     0.185 C 
ATOM     37  N   UNL     1     -11.832   5.922   5.821  1.00  0.00    -0.370 N 
ATOM     38  N   UNL     1     -10.424   7.413   6.689  1.00  0.00    -0.370 N 
ATOM     39  H   UNL     1     -12.111   4.964   5.654  1.00  0.00     0.159 HD
ATOM     40  H   UNL     1     -12.288   6.653   5.302  1.00  0.00     0.159 HD
ATOM     41  H   UNL     1     -11.081   8.126   6.417  1.00  0.00     0.159 HD
ATOM     42  H   UNL     1      -9.618   7.701   7.220  1.00  0.00     0.159 HD
ENDBRANCH  34  35
ENDBRANCH  33  34
ENDBRANCH  32  33
ENDBRANCH   6  32
ENDBRANCH   4   6
ENDBRANCH   1   2
BRANCH   1  43
ATOM     43  C   UNL     1     -13.141   0.669   7.607  1.00  0.00     0.102 C 
ATOM     44  C   UNL     1     -12.466  -0.546   6.948  1.00  0.00     0.020 C 
BRANCH  43  45
ATOM     45  C   UNL     1     -13.816   1.619   6.613  1.00  0.00     0.225 C 
ATOM     46  O   UNL     1     -13.209   2.494   6.003  1.00  0.00    -0.275 OA
ATOM     47  N   UNL     1     -15.183   1.494   6.511  1.00  0.00    -0.342 N 
ATOM     48  H   UNL     1     -15.642   0.681   6.898  1.00  0.00     0.164 HD
BRANCH  47  49
ATOM     49  C   UNL     1     -15.959   2.313   5.574  1.00  0.00     0.192 C 
BRANCH  49  50
ATOM     50  C   UNL     1     -17.129   2.969   6.311  1.00  0.00     0.047 C 
BRANCH  50  51
ATOM     51  C   UNL     1     -17.085   2.708   7.823  1.00  0.00     0.103 C 
BRANCH  51  52
ATOM     52  C   UNL     1     -18.129   1.682   8.259  1.00  0.00     0.226 C 
ATOM     53  O   UNL     1     -19.206   1.618   7.665  1.00  0.00    -0.275 OA
BRANCH  52  54
ATOM     54  N   UNL     1     -17.751   0.804   9.292  1.00  0.00    -0.311 N 
ATOM     55  C   UNL     1     -16.337   0.493   9.541  1.00  0.00     0.153 C 
BRANCH  54  56
ATOM     56  C   UNL     1     -18.707   0.199  10.125  1.00  0.00     0.102 C 
ATOM     57  C   UNL     1     -18.892   0.493  11.422  1.00  0.00     0.043 C 
BRANCH  56  58
ATOM     58  C   UNL     1     -19.664  -0.836   9.582  1.00  0.00     0.268 C 
ATOM     59  O   UNL     1     -19.349  -1.658   8.732  1.00  0.00    -0.268 OA
ATOM     60  N   UNL     1     -20.897  -0.802  10.187  1.00  0.00    -0.339 N 
ATOM     61  H   UNL     1     -21.082  -0.083  10.876  1.00  0.00     0.164 HD
BRANCH  60  62
ATOM     62  C   UNL     1     -21.954  -1.757   9.857  1.00  0.00     0.168 CG0
ATOM     63  C   UNL     1     -21.966  -2.921  10.841  1.00  0.00     0.041 C 
ATOM     64  G   UNL     1     -21.758  -2.265   8.413  1.00  0.00     0.000 G0
ENDBRANCH  60  62
ENDBRANCH  56  58
ENDBRANCH  54  56
ENDBRANCH  52  54
ENDBRANCH  51  52
ENDBRANCH  50  51
ENDBRANCH  49  50
BRANCH  49  65
ATOM     65  C   UNL     1     -16.499   1.476   4.404  1.00  0.00     0.326 C 
ATOM     66  O   UNL     1     -17.618   0.987   4.336  1.00  0.00    -0.250 OA
BRANCH  65  67
ATOM     67  O   UNL     1     -15.605   1.243   3.417  1.00  0.00    -0.480 OA
ATOM     68  H   UNL     1     -16.029   1.635   2.624  1.00  0.00     0.296 HD
ENDBRANCH  65  67
ENDBRANCH  49  65
ENDBRANCH  47  49
ENDBRANCH  43  45
ENDBRANCH   1  43
BRANCH   1  69
ATOM     69  C   UNL     1     -12.725   2.705   9.247  1.00  0.00    -0.001 C 
ATOM     70  C   UNL     1     -12.132   3.911   9.295  1.00  0.00     0.001 C 
BRANCH  70  71
ATOM     71  C   UNL     1     -12.655   5.123   9.928  1.00  0.00    -0.055 C 
ATOM     72  C   UNL     1     -13.455   5.922   9.190  1.00  0.00    -0.018 C 
ATOM     73  C   UNL     1     -12.271   5.390  11.360  1.00  0.00     0.044 C 
BRANCH  72  74
ATOM     74  C   UNL     1     -14.136   7.226   9.578  1.00  0.00     0.038 C 
ATOM     75  C   UNL     1     -13.355   7.811  10.761  1.00  0.00     0.015 C 
BRANCH  74  76
ATOM     76  C   UNL     1     -15.640   6.939   9.866  1.00  0.00     0.128 C 
BRANCH  76  77
ATOM     77  O   UNL     1     -16.463   7.629   8.910  1.00  0.00    -0.381 OA
ATOM     78  C   UNL     1     -17.501   6.826   8.366  1.00  0.00     0.195 C 
ENDBRANCH  76  77
BRANCH  76  79
ATOM     79  C   UNL     1     -15.983   5.432   9.976  1.00  0.00     0.068 C 
BRANCH  79  80
ATOM     80  C   UNL     1     -15.975   4.804  11.349  1.00  0.00    -0.045 A 
ATOM     81  C   UNL     1     -16.352   3.467  11.533  1.00  0.00     0.004 A 
ATOM     82  C   UNL     1     -15.613   5.563  12.472  1.00  0.00     0.004 A 
ATOM     83  C   UNL     1     -16.355   2.898  12.808  1.00  0.00     0.000 A 
ATOM     84  C   UNL     1     -15.618   4.993  13.747  1.00  0.00     0.000 A 
ATOM     85  C   UNL     1     -15.986   3.660  13.914  1.00  0.00     0.000 A 
ENDBRANCH  79  80
ENDBRANCH  76  79
ENDBRANCH  74  76
ENDBRANCH  72  74
ENDBRANCH  70  71
ENDBRANCH   1  69
TORSDOF 17
ENDMDL
MODEL 34
REMARK VINA RESULT:    -6.777      2.557     11.830
REMARK INTER + INTRA:         -28.891
REMARK INTER:                 -21.260
REMARK INTRA:                  -7.630
REMARK UNBOUND:                -8.643
REMARK SMILES C=C1C(=O)N[C@H](C)C(=O)N[C@@H](CC(C)C)C(=O)N[C@@H](C(=O)O)[C@H](C)C(=O)N[C@@H](CCCN=C(N)N)C(=O)N[C@@H](/C=C/C(C)=C/[C@H](C)[C@H](Cc2ccccc2)OC)[C@H](C)C(=O)N[C@@H](C(=O)O)CCC(=O)N1C
REMARK SMILES IDX 39 1 38 2 37 3 36 4 28 6 27 7 25 8 26 9 23 11 24 12 19 13
REMARK SMILES IDX 18 14 16 15 17 16 11 18 10 19 8 20 9 21 12 24 13 25 14 26
REMARK SMILES IDX 15 27 20 28 21 29 22 30 29 32 30 33 31 34 32 35 33 36 34 37
REMARK SMILES IDX 35 38 57 43 58 44 59 45 60 46 61 47 62 49 66 50 67 51 68 52
REMARK SMILES IDX 69 53 70 54 71 55 2 56 1 57 3 58 4 59 5 60 6 62 7 63 63 65
REMARK SMILES IDX 64 66 65 67 40 69 41 70 42 71 44 72 43 73 45 74 46 75 47 76
REMARK SMILES IDX 55 77 56 78 48 79 49 80 50 81 54 82 51 83 53 84 52 85
REMARK H PARENT 38 5 27 10 18 17 10 22 22 31 34 39 34 40 35 41 35 42 61 48
REMARK H PARENT 5 61 65 68
REMARK Flexibility Score:  369.900
ROOT
ATOM      1  C   UNL     1     -13.398   6.707   9.307  1.00  0.00     0.117 C 
ENDROOT
BRANCH   1   2
ATOM      2  N   UNL     1     -13.783   5.479  10.003  1.00  0.00    -0.347 N 
ATOM      3  O   UNL     1     -12.477   5.755  11.870  1.00  0.00    -0.273 OA
ATOM      4  C   UNL     1     -13.359   5.146  11.275  1.00  0.00     0.243 C 
ATOM      5  H   UNL     1     -14.437   4.847   9.565  1.00  0.00     0.164 HD
BRANCH   4   6
ATOM      6  C   UNL     1     -13.983   3.834  11.815  1.00  0.00     0.171 C 
BRANCH   6   7
ATOM      7  N   UNL     1     -15.120   3.421  10.977  1.00  0.00    -0.344 N 
ATOM      8  C   UNL     1     -16.296   2.991  11.551  1.00  0.00     0.226 C 
ATOM      9  O   UNL     1     -16.448   2.910  12.764  1.00  0.00    -0.275 OA
ATOM     10  H   UNL     1     -15.009   3.410   9.971  1.00  0.00     0.164 HD
BRANCH   8  11
ATOM     11  C   UNL     1     -17.392   2.653  10.555  1.00  0.00     0.109 C 
ATOM     12  C   UNL     1     -17.110   3.330   9.214  1.00  0.00     0.021 C 
BRANCH  11  13
ATOM     13  C   UNL     1     -17.577   1.124  10.484  1.00  0.00     0.204 C 
BRANCH  13  14
ATOM     14  N   UNL     1     -18.121   0.576  11.730  1.00  0.00    -0.340 N 
ATOM     15  C   UNL     1     -17.465  -0.379  12.476  1.00  0.00     0.243 C 
ATOM     16  O   UNL     1     -16.346  -0.794  12.181  1.00  0.00    -0.273 OA
ATOM     17  H   UNL     1     -19.103   0.763  11.949  1.00  0.00     0.164 HD
BRANCH  15  18
ATOM     18  C   UNL     1     -18.320  -0.956  13.631  1.00  0.00     0.171 C 
BRANCH  18  19
ATOM     19  N   UNL     1     -18.942   0.183  14.302  1.00  0.00    -0.343 N 
ATOM     20  C   UNL     1     -18.948   0.305  15.678  1.00  0.00     0.242 CG0
ATOM     21  O   UNL     1     -18.549  -0.602  16.406  1.00  0.00    -0.273 OA
ATOM     22  H   UNL     1     -19.388   0.904  13.747  1.00  0.00     0.164 HD
ATOM     23  G   UNL     1     -19.580   1.612  16.199  1.00  0.00     0.000 G0
ENDBRANCH  18  19
BRANCH  18  24
ATOM     24  C   UNL     1     -19.371  -1.933  13.090  1.00  0.00     0.038 C 
BRANCH  24  25
ATOM     25  C   UNL     1     -20.809  -1.374  13.049  1.00  0.00    -0.015 C 
ATOM     26  C   UNL     1     -21.815  -2.294  13.741  1.00  0.00     0.007 C 
ATOM     27  C   UNL     1     -21.232  -1.148  11.596  1.00  0.00     0.007 C 
ENDBRANCH  24  25
ENDBRANCH  18  24
ENDBRANCH  15  18
ENDBRANCH  13  14
BRANCH  13  28
ATOM     28  C   UNL     1     -18.507   0.682   9.349  1.00  0.00     0.327 C 
ATOM     29  O   UNL     1     -18.195   0.003   8.383  1.00  0.00    -0.250 OA
BRANCH  28  30
ATOM     30  O   UNL     1     -19.741   1.218   9.437  1.00  0.00    -0.480 OA
ATOM     31  H   UNL     1     -20.342   0.444   9.422  1.00  0.00     0.296 HD
ENDBRANCH  28  30
ENDBRANCH  13  28
ENDBRANCH  11  13
ENDBRANCH   8  11
ENDBRANCH   6   7
BRANCH   6  32
ATOM     32  C   UNL     1     -12.906   2.743  11.853  1.00  0.00     0.037 C 
BRANCH  32  33
ATOM     33  C   UNL     1     -12.102   2.678  10.547  1.00  0.00     0.026 C 
BRANCH  33  34
ATOM     34  C   UNL     1     -12.031   1.262   9.974  1.00  0.00     0.146 C 
BRANCH  34  35
ATOM     35  N   UNL     1     -13.123   1.084   9.026  1.00  0.00    -0.254 NA
ATOM     36  C   UNL     1     -14.014   0.198   9.276  1.00  0.00     0.185 C 
ATOM     37  N   UNL     1     -15.027   0.028   8.412  1.00  0.00    -0.370 N 
ATOM     38  N   UNL     1     -14.104  -0.638  10.325  1.00  0.00    -0.370 N 
ATOM     39  H   UNL     1     -15.036   0.630   7.598  1.00  0.00     0.159 HD
ATOM     40  H   UNL     1     -15.848  -0.514   8.618  1.00  0.00     0.159 HD
ATOM     41  H   UNL     1     -14.777  -1.387  10.339  1.00  0.00     0.159 HD
ATOM     42  H   UNL     1     -13.400  -0.632  11.047  1.00  0.00     0.159 HD
ENDBRANCH  34  35
ENDBRANCH  33  34
ENDBRANCH  32  33
ENDBRANCH   6  32
ENDBRANCH   4   6
ENDBRANCH   1   2
BRANCH   1  43
ATOM     43  C   UNL     1     -14.654   7.616   9.174  1.00  0.00     0.102 C 
ATOM     44  C   UNL     1     -15.963   6.912   9.569  1.00  0.00     0.020 C 
BRANCH  43  45
ATOM     45  C   UNL     1     -14.702   8.291   7.800  1.00  0.00     0.225 C 
ATOM     46  O   UNL     1     -15.356   7.851   6.858  1.00  0.00    -0.275 OA
ATOM     47  N   UNL     1     -13.882   9.386   7.649  1.00  0.00    -0.342 N 
ATOM     48  H   UNL     1     -13.473   9.821   8.464  1.00  0.00     0.164 HD
BRANCH  47  49
ATOM     49  C   UNL     1     -13.850  10.153   6.400  1.00  0.00     0.192 C 
BRANCH  49  50
ATOM     50  C   UNL     1     -12.600  11.036   6.370  1.00  0.00     0.047 C 
BRANCH  50  51
ATOM     51  C   UNL     1     -11.938  11.061   4.986  1.00  0.00     0.103 C 
BRANCH  51  52
ATOM     52  C   UNL     1     -10.435  10.801   5.065  1.00  0.00     0.226 C 
ATOM     53  O   UNL     1      -9.647  11.745   4.981  1.00  0.00    -0.275 OA
BRANCH  52  54
ATOM     54  N   UNL     1     -10.040   9.473   5.310  1.00  0.00    -0.311 N 
ATOM     55  C   UNL     1     -10.179   8.877   6.646  1.00  0.00     0.153 C 
BRANCH  54  56
ATOM     56  C   UNL     1      -9.506   8.667   4.291  1.00  0.00     0.102 C 
ATOM     57  C   UNL     1     -10.167   7.679   3.666  1.00  0.00     0.043 C 
BRANCH  56  58
ATOM     58  C   UNL     1      -8.105   8.898   3.775  1.00  0.00     0.268 C 
ATOM     59  O   UNL     1      -7.209   8.070   3.876  1.00  0.00    -0.268 OA
ATOM     60  N   UNL     1      -7.960  10.100   3.124  1.00  0.00    -0.339 N 
ATOM     61  H   UNL     1      -8.749  10.735   3.092  1.00  0.00     0.164 HD
BRANCH  60  62
ATOM     62  C   UNL     1      -6.703  10.497   2.492  1.00  0.00     0.168 CG0
ATOM     63  C   UNL     1      -6.824  11.873   1.849  1.00  0.00     0.041 C 
ATOM     64  G   UNL     1      -6.293   9.440   1.446  1.00  0.00     0.000 G0
ENDBRANCH  60  62
ENDBRANCH  56  58
ENDBRANCH  54  56
ENDBRANCH  52  54
ENDBRANCH  51  52
ENDBRANCH  50  51
ENDBRANCH  49  50
BRANCH  49  65
ATOM     65  C   UNL     1     -15.100  11.034   6.244  1.00  0.00     0.326 C 
ATOM     66  O   UNL     1     -15.194  12.202   6.592  1.00  0.00    -0.250 OA
BRANCH  65  67
ATOM     67  O   UNL     1     -16.175  10.401   5.724  1.00  0.00    -0.480 OA
ATOM     68  H   UNL     1     -15.793   9.593   5.319  1.00  0.00     0.296 HD
ENDBRANCH  65  67
ENDBRANCH  49  65
ENDBRANCH  47  49
ENDBRANCH  43  45
ENDBRANCH   1  43
BRANCH   1  69
ATOM     69  C   UNL     1     -12.672   6.271   8.047  1.00  0.00    -0.001 C 
ATOM     70  C   UNL     1     -11.526   5.571   7.966  1.00  0.00     0.001 C 
BRANCH  70  71
ATOM     71  C   UNL     1     -10.846   5.137   6.744  1.00  0.00    -0.055 C 
ATOM     72  C   UNL     1     -11.574   4.472   5.823  1.00  0.00    -0.018 C 
ATOM     73  C   UNL     1      -9.384   5.470   6.598  1.00  0.00     0.044 C 
BRANCH  72  74
ATOM     74  C   UNL     1     -11.142   3.911   4.476  1.00  0.00     0.038 C 
ATOM     75  C   UNL     1     -11.855   4.731   3.393  1.00  0.00     0.015 C 
BRANCH  74  76
ATOM     76  C   UNL     1     -11.451   2.384   4.447  1.00  0.00     0.128 C 
BRANCH  76  77
ATOM     77  O   UNL     1     -10.224   1.635   4.477  1.00  0.00    -0.381 OA
ATOM     78  C   UNL     1      -9.095   2.369   4.022  1.00  0.00     0.195 C 
ENDBRANCH  76  77
BRANCH  76  79
ATOM     79  C   UNL     1     -12.460   1.926   5.529  1.00  0.00     0.068 C 
BRANCH  79  80
ATOM     80  C   UNL     1     -13.933   2.067   5.228  1.00  0.00    -0.045 A 
ATOM     81  C   UNL     1     -14.480   1.552   4.045  1.00  0.00     0.004 A 
ATOM     82  C   UNL     1     -14.776   2.744   6.121  1.00  0.00     0.004 A 
ATOM     83  C   UNL     1     -15.840   1.699   3.767  1.00  0.00     0.000 A 
ATOM     84  C   UNL     1     -16.136   2.891   5.842  1.00  0.00     0.000 A 
ATOM     85  C   UNL     1     -16.668   2.368   4.666  1.00  0.00     0.000 A 
ENDBRANCH  79  80
ENDBRANCH  76  79
ENDBRANCH  74  76
ENDBRANCH  72  74
ENDBRANCH  70  71
ENDBRANCH   1  69
TORSDOF 17
ENDMDL
MODEL 35
REMARK VINA RESULT:    -6.775      3.691     12.324
REMARK INTER + INTRA:         -28.883
REMARK INTER:                 -21.000
REMARK INTRA:                  -7.883
REMARK UNBOUND:                -8.643
REMARK SMILES C=C1C(=O)N[C@H](C)C(=O)N[C@@H](CC(C)C)C(=O)N[C@@H](C(=O)O)[C@H](C)C(=O)N[C@@H](CCCN=C(N)N)C(=O)N[C@@H](/C=C/C(C)=C/[C@H](C)[C@H](Cc2ccccc2)OC)[C@H](C)C(=O)N[C@@H](C(=O)O)CCC(=O)N1C
REMARK SMILES IDX 39 1 38 2 37 3 36 4 28 6 27 7 25 8 26 9 23 11 24 12 19 13
REMARK SMILES IDX 18 14 16 15 17 16 11 18 10 19 8 20 9 21 12 24 13 25 14 26
REMARK SMILES IDX 15 27 20 28 21 29 22 30 29 32 30 33 31 34 32 35 33 36 34 37
REMARK SMILES IDX 35 38 57 43 58 44 59 45 60 46 61 47 62 49 66 50 67 51 68 52
REMARK SMILES IDX 69 53 70 54 71 55 2 56 1 57 3 58 4 59 5 60 6 62 7 63 63 65
REMARK SMILES IDX 64 66 65 67 40 69 41 70 42 71 44 72 43 73 45 74 46 75 47 76
REMARK SMILES IDX 55 77 56 78 48 79 49 80 50 81 54 82 51 83 53 84 52 85
REMARK H PARENT 38 5 27 10 18 17 10 22 22 31 34 39 34 40 35 41 35 42 61 48
REMARK H PARENT 5 61 65 68
REMARK Flexibility Score:  369.900
ROOT
ATOM      1  C   UNL     1     -16.423   2.785   7.411  1.00  0.00     0.117 C 
ENDROOT
BRANCH   1   2
ATOM      2  N   UNL     1     -16.983   2.239   8.648  1.00  0.00    -0.347 N 
ATOM      3  O   UNL     1     -18.836   1.236   7.736  1.00  0.00    -0.273 OA
ATOM      4  C   UNL     1     -18.100   1.428   8.698  1.00  0.00     0.243 C 
ATOM      5  H   UNL     1     -16.513   2.413   9.523  1.00  0.00     0.164 HD
BRANCH   4   6
ATOM      6  C   UNL     1     -18.433   0.914  10.122  1.00  0.00     0.171 C 
BRANCH   6   7
ATOM      7  N   UNL     1     -19.168  -0.359  10.050  1.00  0.00    -0.344 N 
ATOM      8  C   UNL     1     -20.462  -0.451  10.517  1.00  0.00     0.226 C 
ATOM      9  O   UNL     1     -21.049   0.496  11.027  1.00  0.00    -0.275 OA
ATOM     10  H   UNL     1     -18.694  -1.181   9.698  1.00  0.00     0.164 HD
BRANCH   8  11
ATOM     11  C   UNL     1     -21.101  -1.815  10.323  1.00  0.00     0.109 C 
ATOM     12  C   UNL     1     -20.396  -2.571   9.197  1.00  0.00     0.021 C 
BRANCH  11  13
ATOM     13  C   UNL     1     -21.157  -2.562  11.670  1.00  0.00     0.204 C 
BRANCH  13  14
ATOM     14  N   UNL     1     -20.958  -1.660  12.809  1.00  0.00    -0.340 N 
ATOM     15  C   UNL     1     -20.347  -2.056  13.979  1.00  0.00     0.243 C 
ATOM     16  O   UNL     1     -19.870  -3.180  14.128  1.00  0.00    -0.273 OA
ATOM     17  H   UNL     1     -21.460  -0.768  12.810  1.00  0.00     0.164 HD
BRANCH  15  18
ATOM     18  C   UNL     1     -20.435  -1.002  15.111  1.00  0.00     0.171 C 
BRANCH  18  19
ATOM     19  N   UNL     1     -21.836  -0.947  15.523  1.00  0.00    -0.343 N 
ATOM     20  C   UNL     1     -22.444   0.241  15.879  1.00  0.00     0.242 CG0
ATOM     21  O   UNL     1     -21.803   1.283  15.994  1.00  0.00    -0.273 OA
ATOM     22  H   UNL     1     -22.379  -1.802  15.556  1.00  0.00     0.164 HD
ATOM     23  G   UNL     1     -23.946   0.114  16.208  1.00  0.00     0.000 G0
ENDBRANCH  18  19
BRANCH  18  24
ATOM     24  C   UNL     1     -19.520  -1.386  16.280  1.00  0.00     0.038 C 
BRANCH  24  25
ATOM     25  C   UNL     1     -18.225  -0.553  16.385  1.00  0.00    -0.015 C 
ATOM     26  C   UNL     1     -18.442   0.915  16.015  1.00  0.00     0.007 C 
ATOM     27  C   UNL     1     -17.148  -1.158  15.481  1.00  0.00     0.007 C 
ENDBRANCH  24  25
ENDBRANCH  18  24
ENDBRANCH  15  18
ENDBRANCH  13  14
BRANCH  13  28
ATOM     28  C   UNL     1     -22.482  -3.296  11.899  1.00  0.00     0.327 C 
ATOM     29  O   UNL     1     -23.596  -2.882  11.616  1.00  0.00    -0.250 OA
BRANCH  28  30
ATOM     30  O   UNL     1     -22.335  -4.452  12.577  1.00  0.00    -0.480 OA
ATOM     31  H   UNL     1     -22.669  -4.249  13.476  1.00  0.00     0.296 HD
ENDBRANCH  28  30
ENDBRANCH  13  28
ENDBRANCH  11  13
ENDBRANCH   8  11
ENDBRANCH   6   7
BRANCH   6  32
ATOM     32  C   UNL     1     -17.132   0.750  10.915  1.00  0.00     0.037 C 
BRANCH  32  33
ATOM     33  C   UNL     1     -17.356   0.876  12.428  1.00  0.00     0.026 C 
BRANCH  33  34
ATOM     34  C   UNL     1     -16.670   2.108  13.021  1.00  0.00     0.146 C 
BRANCH  34  35
ATOM     35  N   UNL     1     -15.228   1.951  12.889  1.00  0.00    -0.254 NA
ATOM     36  C   UNL     1     -14.562   2.873  12.300  1.00  0.00     0.185 C 
ATOM     37  N   UNL     1     -13.232   2.742  12.177  1.00  0.00    -0.370 N 
ATOM     38  N   UNL     1     -15.006   4.019  11.754  1.00  0.00    -0.370 N 
ATOM     39  H   UNL     1     -12.819   1.907  12.573  1.00  0.00     0.159 HD
ATOM     40  H   UNL     1     -12.623   3.489  11.889  1.00  0.00     0.159 HD
ATOM     41  H   UNL     1     -14.401   4.599  11.195  1.00  0.00     0.159 HD
ATOM     42  H   UNL     1     -15.989   4.243  11.759  1.00  0.00     0.159 HD
ENDBRANCH  34  35
ENDBRANCH  33  34
ENDBRANCH  32  33
ENDBRANCH   6  32
ENDBRANCH   4   6
ENDBRANCH   1   2
BRANCH   1  43
ATOM     43  C   UNL     1     -15.180   1.938   7.014  1.00  0.00     0.102 C 
ATOM     44  C   UNL     1     -15.537   0.635   6.278  1.00  0.00     0.020 C 
BRANCH  43  45
ATOM     45  C   UNL     1     -14.245   1.739   8.210  1.00  0.00     0.225 C 
ATOM     46  O   UNL     1     -14.242   2.480   9.189  1.00  0.00    -0.275 OA
ATOM     47  N   UNL     1     -13.328   0.721   8.083  1.00  0.00    -0.342 N 
ATOM     48  H   UNL     1     -13.442   0.034   7.350  1.00  0.00     0.164 HD
BRANCH  47  49
ATOM     49  C   UNL     1     -12.393   0.392   9.163  1.00  0.00     0.192 C 
BRANCH  49  50
ATOM     50  C   UNL     1     -10.959   0.418   8.628  1.00  0.00     0.047 C 
BRANCH  50  51
ATOM     51  C   UNL     1      -9.989   1.105   9.598  1.00  0.00     0.103 C 
BRANCH  51  52
ATOM     52  C   UNL     1      -8.616   1.337   8.969  1.00  0.00     0.226 C 
ATOM     53  O   UNL     1      -7.731   0.490   9.108  1.00  0.00    -0.275 OA
BRANCH  52  54
ATOM     54  N   UNL     1      -8.472   2.498   8.188  1.00  0.00    -0.311 N 
ATOM     55  C   UNL     1      -9.132   3.754   8.571  1.00  0.00     0.153 C 
BRANCH  54  56
ATOM     56  C   UNL     1      -7.692   2.504   7.020  1.00  0.00     0.102 C 
ATOM     57  C   UNL     1      -8.016   1.879   5.876  1.00  0.00     0.043 C 
BRANCH  56  58
ATOM     58  C   UNL     1      -6.399   3.283   6.955  1.00  0.00     0.268 C 
ATOM     59  O   UNL     1      -5.694   3.492   7.933  1.00  0.00    -0.268 OA
ATOM     60  N   UNL     1      -6.067   3.674   5.680  1.00  0.00    -0.339 N 
ATOM     61  H   UNL     1      -6.711   3.471   4.925  1.00  0.00     0.164 HD
BRANCH  60  62
ATOM     62  C   UNL     1      -4.826   4.386   5.382  1.00  0.00     0.168 CG0
ATOM     63  C   UNL     1      -5.053   5.893   5.352  1.00  0.00     0.041 C 
ATOM     64  G   UNL     1      -4.257   3.893   4.036  1.00  0.00     0.000 G0
ENDBRANCH  60  62
ENDBRANCH  56  58
ENDBRANCH  54  56
ENDBRANCH  52  54
ENDBRANCH  51  52
ENDBRANCH  50  51
ENDBRANCH  49  50
BRANCH  49  65
ATOM     65  C   UNL     1     -12.686  -0.992   9.764  1.00  0.00     0.326 C 
ATOM     66  O   UNL     1     -12.085  -2.023   9.501  1.00  0.00    -0.250 OA
BRANCH  65  67
ATOM     67  O   UNL     1     -13.742  -1.028  10.607  1.00  0.00    -0.480 OA
ATOM     68  H   UNL     1     -13.703  -1.932  10.988  1.00  0.00     0.296 HD
ENDBRANCH  65  67
ENDBRANCH  49  65
ENDBRANCH  47  49
ENDBRANCH  43  45
ENDBRANCH   1  43
BRANCH   1  69
ATOM     69  C   UNL     1     -16.251   4.275   7.646  1.00  0.00    -0.001 C 
ATOM     70  C   UNL     1     -16.769   5.010   8.645  1.00  0.00     0.001 C 
BRANCH  70  71
ATOM     71  C   UNL     1     -16.578   6.444   8.873  1.00  0.00    -0.055 C 
ATOM     72  C   UNL     1     -16.622   7.261   7.800  1.00  0.00    -0.018 C 
ATOM     73  C   UNL     1     -16.355   6.906  10.289  1.00  0.00     0.044 C 
BRANCH  72  74
ATOM     74  C   UNL     1     -16.463   8.773   7.734  1.00  0.00     0.038 C 
ATOM     75  C   UNL     1     -17.849   9.363   7.445  1.00  0.00     0.015 C 
BRANCH  74  76
ATOM     76  C   UNL     1     -15.373   9.117   6.676  1.00  0.00     0.128 C 
BRANCH  76  77
ATOM     77  O   UNL     1     -15.701  10.351   6.017  1.00  0.00    -0.381 OA
ATOM     78  C   UNL     1     -14.739  11.379   6.217  1.00  0.00     0.195 C 
ENDBRANCH  76  77
BRANCH  76  79
ATOM     79  C   UNL     1     -13.927   9.100   7.232  1.00  0.00     0.068 C 
BRANCH  79  80
ATOM     80  C   UNL     1     -13.415   7.812   7.830  1.00  0.00    -0.045 A 
ATOM     81  C   UNL     1     -13.151   6.696   7.024  1.00  0.00     0.004 A 
ATOM     82  C   UNL     1     -13.221   7.703   9.215  1.00  0.00     0.004 A 
ATOM     83  C   UNL     1     -12.691   5.504   7.586  1.00  0.00     0.000 A 
ATOM     84  C   UNL     1     -12.761   6.510   9.777  1.00  0.00     0.000 A 
ATOM     85  C   UNL     1     -12.495   5.412   8.963  1.00  0.00     0.000 A 
ENDBRANCH  79  80
ENDBRANCH  76  79
ENDBRANCH  74  76
ENDBRANCH  72  74
ENDBRANCH  70  71
ENDBRANCH   1  69
TORSDOF 17
ENDMDL
MODEL 36
REMARK VINA RESULT:    -6.771      3.632      7.959
REMARK INTER + INTRA:         -28.871
REMARK INTER:                 -21.487
REMARK INTRA:                  -7.383
REMARK UNBOUND:                -8.643
REMARK SMILES C=C1C(=O)N[C@H](C)C(=O)N[C@@H](CC(C)C)C(=O)N[C@@H](C(=O)O)[C@H](C)C(=O)N[C@@H](CCCN=C(N)N)C(=O)N[C@@H](/C=C/C(C)=C/[C@H](C)[C@H](Cc2ccccc2)OC)[C@H](C)C(=O)N[C@@H](C(=O)O)CCC(=O)N1C
REMARK SMILES IDX 39 1 38 2 37 3 36 4 28 6 27 7 25 8 26 9 23 11 24 12 19 13
REMARK SMILES IDX 18 14 16 15 17 16 11 18 10 19 8 20 9 21 12 24 13 25 14 26
REMARK SMILES IDX 15 27 20 28 21 29 22 30 29 32 30 33 31 34 32 35 33 36 34 37
REMARK SMILES IDX 35 38 57 43 58 44 59 45 60 46 61 47 62 49 66 50 67 51 68 52
REMARK SMILES IDX 69 53 70 54 71 55 2 56 1 57 3 58 4 59 5 60 6 62 7 63 63 65
REMARK SMILES IDX 64 66 65 67 40 69 41 70 42 71 44 72 43 73 45 74 46 75 47 76
REMARK SMILES IDX 55 77 56 78 48 79 49 80 50 81 54 82 51 83 53 84 52 85
REMARK H PARENT 38 5 27 10 18 17 10 22 22 31 34 39 34 40 35 41 35 42 61 48
REMARK H PARENT 5 61 65 68
REMARK Flexibility Score:  369.900
ROOT
ATOM      1  C   UNL     1      -7.218   4.415   5.934  1.00  0.00     0.117 C 
ENDROOT
BRANCH   1   2
ATOM      2  N   UNL     1      -8.621   4.637   5.585  1.00  0.00    -0.347 N 
ATOM      3  O   UNL     1      -9.197   2.449   5.197  1.00  0.00    -0.273 OA
ATOM      4  C   UNL     1      -9.525   3.623   5.332  1.00  0.00     0.243 C 
ATOM      5  H   UNL     1      -8.984   5.578   5.570  1.00  0.00     0.164 HD
BRANCH   4   6
ATOM      6  C   UNL     1     -10.968   4.125   5.071  1.00  0.00     0.171 C 
BRANCH   6   7
ATOM      7  N   UNL     1     -11.163   5.459   5.660  1.00  0.00    -0.344 N 
ATOM      8  C   UNL     1     -12.350   5.788   6.278  1.00  0.00     0.226 C 
ATOM      9  O   UNL     1     -13.294   5.011   6.349  1.00  0.00    -0.275 OA
ATOM     10  H   UNL     1     -10.430   6.151   5.562  1.00  0.00     0.164 HD
BRANCH   8  11
ATOM     11  C   UNL     1     -12.375   7.181   6.882  1.00  0.00     0.109 C 
ATOM     12  C   UNL     1     -12.711   8.215   5.807  1.00  0.00     0.021 C 
BRANCH  11  13
ATOM     13  C   UNL     1     -13.305   7.199   8.112  1.00  0.00     0.204 C 
BRANCH  13  14
ATOM     14  N   UNL     1     -13.330   5.907   8.804  1.00  0.00    -0.340 N 
ATOM     15  C   UNL     1     -14.500   5.286   9.186  1.00  0.00     0.243 C 
ATOM     16  O   UNL     1     -15.609   5.744   8.920  1.00  0.00    -0.273 OA
ATOM     17  H   UNL     1     -12.451   5.550   9.186  1.00  0.00     0.164 HD
BRANCH  15  18
ATOM     18  C   UNL     1     -14.275   4.042  10.081  1.00  0.00     0.171 C 
BRANCH  18  19
ATOM     19  N   UNL     1     -14.152   2.896   9.181  1.00  0.00    -0.343 N 
ATOM     20  C   UNL     1     -15.259   2.211   8.718  1.00  0.00     0.242 CG0
ATOM     21  O   UNL     1     -16.387   2.448   9.145  1.00  0.00    -0.273 OA
ATOM     22  H   UNL     1     -13.231   2.588   8.891  1.00  0.00     0.164 HD
ATOM     23  G   UNL     1     -14.937   1.082   7.717  1.00  0.00     0.000 G0
ENDBRANCH  18  19
BRANCH  18  24
ATOM     24  C   UNL     1     -13.020   4.215  10.944  1.00  0.00     0.038 C 
BRANCH  24  25
ATOM     25  C   UNL     1     -13.197   3.818  12.425  1.00  0.00    -0.015 C 
ATOM     26  C   UNL     1     -14.152   4.750  13.171  1.00  0.00     0.007 C 
ATOM     27  C   UNL     1     -11.834   3.812  13.123  1.00  0.00     0.007 C 
ENDBRANCH  24  25
ENDBRANCH  18  24
ENDBRANCH  15  18
ENDBRANCH  13  14
BRANCH  13  28
ATOM     28  C   UNL     1     -12.917   8.260   9.147  1.00  0.00     0.327 C 
ATOM     29  O   UNL     1     -12.341   9.313   8.921  1.00  0.00    -0.250 OA
BRANCH  28  30
ATOM     30  O   UNL     1     -13.170   7.879  10.415  1.00  0.00    -0.480 OA
ATOM     31  H   UNL     1     -14.102   7.577  10.395  1.00  0.00     0.296 HD
ENDBRANCH  28  30
ENDBRANCH  13  28
ENDBRANCH  11  13
ENDBRANCH   8  11
ENDBRANCH   6   7
BRANCH   6  32
ATOM     32  C   UNL     1     -11.227   4.150   3.561  1.00  0.00     0.037 C 
BRANCH  32  33
ATOM     33  C   UNL     1     -10.561   5.353   2.879  1.00  0.00     0.026 C 
BRANCH  33  34
ATOM     34  C   UNL     1      -9.615   4.937   1.752  1.00  0.00     0.146 C 
BRANCH  34  35
ATOM     35  N   UNL     1      -8.492   4.208   2.325  1.00  0.00    -0.254 NA
ATOM     36  C   UNL     1      -8.323   2.981   1.996  1.00  0.00     0.185 C 
ATOM     37  N   UNL     1      -7.289   2.301   2.515  1.00  0.00    -0.370 N 
ATOM     38  N   UNL     1      -9.058   2.221   1.165  1.00  0.00    -0.370 N 
ATOM     39  H   UNL     1      -6.681   2.810   3.145  1.00  0.00     0.159 HD
ATOM     40  H   UNL     1      -6.990   1.402   2.178  1.00  0.00     0.159 HD
ATOM     41  H   UNL     1      -8.905   1.228   1.095  1.00  0.00     0.159 HD
ATOM     42  H   UNL     1      -9.877   2.598   0.715  1.00  0.00     0.159 HD
ENDBRANCH  34  35
ENDBRANCH  33  34
ENDBRANCH  32  33
ENDBRANCH   6  32
ENDBRANCH   4   6
ENDBRANCH   1   2
BRANCH   1  43
ATOM     43  C   UNL     1      -7.049   4.630   7.466  1.00  0.00     0.102 C 
ATOM     44  C   UNL     1      -5.751   5.365   7.842  1.00  0.00     0.020 C 
BRANCH  43  45
ATOM     45  C   UNL     1      -7.267   3.322   8.232  1.00  0.00     0.225 C 
ATOM     46  O   UNL     1      -6.390   2.475   8.376  1.00  0.00    -0.275 OA
ATOM     47  N   UNL     1      -8.550   3.103   8.679  1.00  0.00    -0.342 N 
ATOM     48  H   UNL     1      -9.213   3.865   8.688  1.00  0.00     0.164 HD
BRANCH  47  49
ATOM     49  C   UNL     1      -8.897   1.911   9.458  1.00  0.00     0.192 C 
BRANCH  49  50
ATOM     50  C   UNL     1      -8.383   0.660   8.741  1.00  0.00     0.047 C 
BRANCH  50  51
ATOM     51  C   UNL     1      -9.344   0.182   7.644  1.00  0.00     0.103 C 
BRANCH  51  52
ATOM     52  C   UNL     1      -9.773  -1.269   7.849  1.00  0.00     0.226 C 
ATOM     53  O   UNL     1      -9.007  -2.059   8.405  1.00  0.00    -0.275 OA
BRANCH  52  54
ATOM     54  N   UNL     1     -11.080  -1.600   7.445  1.00  0.00    -0.311 N 
ATOM     55  C   UNL     1     -11.343  -2.137   6.103  1.00  0.00     0.153 C 
BRANCH  54  56
ATOM     56  C   UNL     1     -12.177  -1.436   8.307  1.00  0.00     0.102 C 
ATOM     57  C   UNL     1     -12.155  -1.666   9.630  1.00  0.00     0.043 C 
BRANCH  56  58
ATOM     58  C   UNL     1     -13.500  -0.925   7.789  1.00  0.00     0.268 C 
ATOM     59  O   UNL     1     -14.328  -1.642   7.243  1.00  0.00    -0.268 OA
ATOM     60  N   UNL     1     -13.704   0.409   8.051  1.00  0.00    -0.339 N 
ATOM     61  H   UNL     1     -12.964   0.936   8.499  1.00  0.00     0.164 HD
BRANCH  60  62
ATOM     62  C   UNL     1     -14.946   1.093   7.692  1.00  0.00     0.168 CG0
ATOM     63  C   UNL     1     -14.865   1.669   6.284  1.00  0.00     0.041 C 
ATOM     64  G   UNL     1     -15.240   2.204   8.721  1.00  0.00     0.000 G0
ENDBRANCH  60  62
ENDBRANCH  56  58
ENDBRANCH  54  56
ENDBRANCH  52  54
ENDBRANCH  51  52
ENDBRANCH  50  51
ENDBRANCH  49  50
BRANCH  49  65
ATOM     65  C   UNL     1     -10.415   1.791   9.665  1.00  0.00     0.326 C 
ATOM     66  O   UNL     1     -11.272   2.230   8.912  1.00  0.00    -0.250 OA
BRANCH  65  67
ATOM     67  O   UNL     1     -10.781   1.191  10.819  1.00  0.00    -0.480 OA
ATOM     68  H   UNL     1      -9.942   0.811  11.159  1.00  0.00     0.296 HD
ENDBRANCH  65  67
ENDBRANCH  49  65
ENDBRANCH  47  49
ENDBRANCH  43  45
ENDBRANCH   1  43
BRANCH   1  69
ATOM     69  C   UNL     1      -6.403   5.269   4.980  1.00  0.00    -0.001 C 
ATOM     70  C   UNL     1      -5.409   4.866   4.169  1.00  0.00     0.001 C 
BRANCH  70  71
ATOM     71  C   UNL     1      -4.644   5.696   3.236  1.00  0.00    -0.055 C 
ATOM     72  C   UNL     1      -4.891   7.023   3.229  1.00  0.00    -0.018 C 
ATOM     73  C   UNL     1      -3.630   5.012   2.357  1.00  0.00     0.044 C 
BRANCH  72  74
ATOM     74  C   UNL     1      -4.256   8.116   2.381  1.00  0.00     0.038 C 
ATOM     75  C   UNL     1      -2.874   8.406   2.977  1.00  0.00     0.015 C 
BRANCH  74  76
ATOM     76  C   UNL     1      -5.219   9.339   2.338  1.00  0.00     0.128 C 
BRANCH  76  77
ATOM     77  O   UNL     1      -4.735  10.312   1.397  1.00  0.00    -0.381 OA
ATOM     78  C   UNL     1      -5.578  11.449   1.266  1.00  0.00     0.195 C 
ENDBRANCH  76  77
BRANCH  76  79
ATOM     79  C   UNL     1      -6.704   8.964   2.102  1.00  0.00     0.068 C 
BRANCH  79  80
ATOM     80  C   UNL     1      -7.697   9.289   3.192  1.00  0.00    -0.045 A 
ATOM     81  C   UNL     1      -7.884  10.607   3.628  1.00  0.00     0.004 A 
ATOM     82  C   UNL     1      -8.431   8.264   3.808  1.00  0.00     0.004 A 
ATOM     83  C   UNL     1      -8.795  10.897   4.646  1.00  0.00     0.000 A 
ATOM     84  C   UNL     1      -9.341   8.556   4.826  1.00  0.00     0.000 A 
ATOM     85  C   UNL     1      -9.524   9.872   5.244  1.00  0.00     0.000 A 
ENDBRANCH  79  80
ENDBRANCH  76  79
ENDBRANCH  74  76
ENDBRANCH  72  74
ENDBRANCH  70  71
ENDBRANCH   1  69
TORSDOF 17
ENDMDL
MODEL 37
REMARK VINA RESULT:    -6.764      3.101     11.657
REMARK INTER + INTRA:         -28.852
REMARK INTER:                 -21.329
REMARK INTRA:                  -7.523
REMARK UNBOUND:                -8.643
REMARK SMILES C=C1C(=O)N[C@H](C)C(=O)N[C@@H](CC(C)C)C(=O)N[C@@H](C(=O)O)[C@H](C)C(=O)N[C@@H](CCCN=C(N)N)C(=O)N[C@@H](/C=C/C(C)=C/[C@H](C)[C@H](Cc2ccccc2)OC)[C@H](C)C(=O)N[C@@H](C(=O)O)CCC(=O)N1C
REMARK SMILES IDX 39 1 38 2 37 3 36 4 28 6 27 7 25 8 26 9 23 11 24 12 19 13
REMARK SMILES IDX 18 14 16 15 17 16 11 18 10 19 8 20 9 21 12 24 13 25 14 26
REMARK SMILES IDX 15 27 20 28 21 29 22 30 29 32 30 33 31 34 32 35 33 36 34 37
REMARK SMILES IDX 35 38 57 43 58 44 59 45 60 46 61 47 62 49 66 50 67 51 68 52
REMARK SMILES IDX 69 53 70 54 71 55 2 56 1 57 3 58 4 59 5 60 6 62 7 63 63 65
REMARK SMILES IDX 64 66 65 67 40 69 41 70 42 71 44 72 43 73 45 74 46 75 47 76
REMARK SMILES IDX 55 77 56 78 48 79 49 80 50 81 54 82 51 83 53 84 52 85
REMARK H PARENT 38 5 27 10 18 17 10 22 22 31 34 39 34 40 35 41 35 42 61 48
REMARK H PARENT 5 61 65 68
REMARK Flexibility Score:  369.900
ROOT
ATOM      1  C   UNL     1     -12.369   3.200   5.998  1.00  0.00     0.117 C 
ENDROOT
BRANCH   1   2
ATOM      2  N   UNL     1     -12.067   2.479   7.235  1.00  0.00    -0.347 N 
ATOM      3  O   UNL     1     -13.881   1.072   7.228  1.00  0.00    -0.273 OA
ATOM      4  C   UNL     1     -12.801   1.406   7.704  1.00  0.00     0.243 C 
ATOM      5  H   UNL     1     -11.249   2.731   7.768  1.00  0.00     0.164 HD
BRANCH   4   6
ATOM      6  C   UNL     1     -12.219   0.767   8.990  1.00  0.00     0.171 C 
BRANCH   6   7
ATOM      7  N   UNL     1     -12.997   1.182  10.168  1.00  0.00    -0.344 N 
ATOM      8  C   UNL     1     -12.785   2.412  10.752  1.00  0.00     0.226 C 
ATOM      9  O   UNL     1     -11.941   3.200  10.345  1.00  0.00    -0.275 OA
ATOM     10  H   UNL     1     -13.657   0.530  10.575  1.00  0.00     0.164 HD
BRANCH   8  11
ATOM     11  C   UNL     1     -13.703   2.714  11.924  1.00  0.00     0.109 C 
ATOM     12  C   UNL     1     -13.221   3.963  12.662  1.00  0.00     0.021 C 
BRANCH  11  13
ATOM     13  C   UNL     1     -15.166   2.772  11.439  1.00  0.00     0.204 C 
BRANCH  13  14
ATOM     14  N   UNL     1     -16.028   1.840  12.173  1.00  0.00    -0.340 N 
ATOM     15  C   UNL     1     -16.332   0.579  11.709  1.00  0.00     0.243 C 
ATOM     16  O   UNL     1     -15.852   0.123  10.672  1.00  0.00    -0.273 OA
ATOM     17  H   UNL     1     -16.575   2.207  12.956  1.00  0.00     0.164 HD
BRANCH  15  18
ATOM     18  C   UNL     1     -17.420  -0.141  12.543  1.00  0.00     0.171 C 
BRANCH  18  19
ATOM     19  N   UNL     1     -17.561   0.612  13.787  1.00  0.00    -0.343 N 
ATOM     20  C   UNL     1     -17.131   0.105  14.998  1.00  0.00     0.242 CG0
ATOM     21  O   UNL     1     -16.734  -1.053  15.107  1.00  0.00    -0.273 OA
ATOM     22  H   UNL     1     -17.990   1.530  13.767  1.00  0.00     0.164 HD
ATOM     23  G   UNL     1     -17.291   1.076  16.187  1.00  0.00     0.000 G0
ENDBRANCH  18  19
BRANCH  18  24
ATOM     24  C   UNL     1     -18.743  -0.202  11.770  1.00  0.00     0.038 C 
BRANCH  24  25
ATOM     25  C   UNL     1     -19.781  -1.189  12.345  1.00  0.00    -0.015 C 
ATOM     26  C   UNL     1     -19.140  -2.480  12.856  1.00  0.00     0.007 C 
ATOM     27  C   UNL     1     -20.823  -1.522  11.274  1.00  0.00     0.007 C 
ENDBRANCH  24  25
ENDBRANCH  18  24
ENDBRANCH  15  18
ENDBRANCH  13  14
BRANCH  13  28
ATOM     28  C   UNL     1     -15.790   4.165  11.569  1.00  0.00     0.327 C 
ATOM     29  O   UNL     1     -16.355   4.615  12.554  1.00  0.00    -0.250 OA
BRANCH  28  30
ATOM     30  O   UNL     1     -15.770   4.863  10.415  1.00  0.00    -0.480 OA
ATOM     31  H   UNL     1     -15.101   4.402   9.866  1.00  0.00     0.296 HD
ENDBRANCH  28  30
ENDBRANCH  13  28
ENDBRANCH  11  13
ENDBRANCH   8  11
ENDBRANCH   6   7
BRANCH   6  32
ATOM     32  C   UNL     1     -12.224  -0.759   8.840  1.00  0.00     0.037 C 
BRANCH  32  33
ATOM     33  C   UNL     1     -11.420  -1.223   7.618  1.00  0.00     0.026 C 
BRANCH  33  34
ATOM     34  C   UNL     1     -12.232  -2.133   6.695  1.00  0.00     0.146 C 
BRANCH  34  35
ATOM     35  N   UNL     1     -12.120  -1.638   5.330  1.00  0.00    -0.254 NA
ATOM     36  C   UNL     1     -11.584  -2.393   4.444  1.00  0.00     0.185 C 
ATOM     37  N   UNL     1     -11.480  -1.949   3.182  1.00  0.00    -0.370 N 
ATOM     38  N   UNL     1     -11.080  -3.632   4.584  1.00  0.00    -0.370 N 
ATOM     39  H   UNL     1     -11.848  -1.025   2.994  1.00  0.00     0.159 HD
ATOM     40  H   UNL     1     -11.236  -2.537   2.404  1.00  0.00     0.159 HD
ATOM     41  H   UNL     1     -10.558  -4.068   3.842  1.00  0.00     0.159 HD
ATOM     42  H   UNL     1     -11.077  -4.086   5.484  1.00  0.00     0.159 HD
ENDBRANCH  34  35
ENDBRANCH  33  34
ENDBRANCH  32  33
ENDBRANCH   6  32
ENDBRANCH   4   6
ENDBRANCH   1   2
BRANCH   1  43
ATOM     43  C   UNL     1     -11.253   2.890   4.959  1.00  0.00     0.102 C 
ATOM     44  C   UNL     1     -11.570   1.681   4.063  1.00  0.00     0.020 C 
BRANCH  43  45
ATOM     45  C   UNL     1      -9.879   2.820   5.632  1.00  0.00     0.225 C 
ATOM     46  O   UNL     1      -9.470   3.675   6.414  1.00  0.00    -0.275 OA
ATOM     47  N   UNL     1      -9.076   1.776   5.233  1.00  0.00    -0.342 N 
ATOM     48  H   UNL     1      -9.476   1.008   4.714  1.00  0.00     0.164 HD
BRANCH  47  49
ATOM     49  C   UNL     1      -7.748   1.564   5.818  1.00  0.00     0.192 C 
BRANCH  49  50
ATOM     50  C   UNL     1      -6.831   0.904   4.785  1.00  0.00     0.047 C 
BRANCH  50  51
ATOM     51  C   UNL     1      -6.533   1.829   3.597  1.00  0.00     0.103 C 
BRANCH  51  52
ATOM     52  C   UNL     1      -5.982   3.181   4.047  1.00  0.00     0.226 C 
ATOM     53  O   UNL     1      -4.925   3.229   4.680  1.00  0.00    -0.275 OA
BRANCH  52  54
ATOM     54  N   UNL     1      -6.698   4.319   3.631  1.00  0.00    -0.311 N 
ATOM     55  C   UNL     1      -7.847   4.200   2.724  1.00  0.00     0.153 C 
BRANCH  54  56
ATOM     56  C   UNL     1      -6.346   5.606   4.072  1.00  0.00     0.102 C 
ATOM     57  C   UNL     1      -6.787   6.177   5.204  1.00  0.00     0.043 C 
BRANCH  56  58
ATOM     58  C   UNL     1      -5.372   6.454   3.288  1.00  0.00     0.268 C 
ATOM     59  O   UNL     1      -5.488   7.665   3.164  1.00  0.00    -0.268 OA
ATOM     60  N   UNL     1      -4.312   5.736   2.788  1.00  0.00    -0.339 N 
ATOM     61  H   UNL     1      -4.295   4.732   2.926  1.00  0.00     0.164 HD
BRANCH  60  62
ATOM     62  C   UNL     1      -3.220   6.370   2.052  1.00  0.00     0.168 CG0
ATOM     63  C   UNL     1      -3.231   5.950   0.587  1.00  0.00     0.041 C 
ATOM     64  G   UNL     1      -1.873   6.010   2.713  1.00  0.00     0.000 G0
ENDBRANCH  60  62
ENDBRANCH  56  58
ENDBRANCH  54  56
ENDBRANCH  52  54
ENDBRANCH  51  52
ENDBRANCH  50  51
ENDBRANCH  49  50
BRANCH  49  65
ATOM     65  C   UNL     1      -7.818   0.681   7.074  1.00  0.00     0.326 C 
ATOM     66  O   UNL     1      -7.628   1.061   8.221  1.00  0.00    -0.250 OA
BRANCH  65  67
ATOM     67  O   UNL     1      -8.058  -0.626   6.832  1.00  0.00    -0.480 OA
ATOM     68  H   UNL     1      -8.448  -0.949   7.673  1.00  0.00     0.296 HD
ENDBRANCH  65  67
ENDBRANCH  49  65
ENDBRANCH  47  49
ENDBRANCH  43  45
ENDBRANCH   1  43
BRANCH   1  69
ATOM     69  C   UNL     1     -12.617   4.643   6.399  1.00  0.00    -0.001 C 
ATOM     70  C   UNL     1     -12.791   5.127   7.641  1.00  0.00     0.001 C 
BRANCH  70  71
ATOM     71  C   UNL     1     -13.009   6.526   8.017  1.00  0.00    -0.055 C 
ATOM     72  C   UNL     1     -13.229   7.415   7.026  1.00  0.00    -0.018 C 
ATOM     73  C   UNL     1     -12.981   6.871   9.483  1.00  0.00     0.044 C 
BRANCH  72  74
ATOM     74  C   UNL     1     -13.486   8.913   7.116  1.00  0.00     0.038 C 
ATOM     75  C   UNL     1     -14.977   9.133   6.833  1.00  0.00     0.015 C 
BRANCH  74  76
ATOM     76  C   UNL     1     -12.520   9.646   6.139  1.00  0.00     0.128 C 
BRANCH  76  77
ATOM     77  O   UNL     1     -12.702  11.068   6.245  1.00  0.00    -0.381 OA
ATOM     78  C   UNL     1     -12.847  11.720   4.991  1.00  0.00     0.195 C 
ENDBRANCH  76  77
BRANCH  76  79
ATOM     79  C   UNL     1     -11.038   9.218   6.280  1.00  0.00     0.068 C 
BRANCH  79  80
ATOM     80  C   UNL     1     -10.304   8.788   5.033  1.00  0.00    -0.045 A 
ATOM     81  C   UNL     1     -10.666   7.620   4.349  1.00  0.00     0.004 A 
ATOM     82  C   UNL     1      -9.223   9.543   4.553  1.00  0.00     0.004 A 
ATOM     83  C   UNL     1      -9.973   7.221   3.204  1.00  0.00     0.000 A 
ATOM     84  C   UNL     1      -8.530   9.143   3.408  1.00  0.00     0.000 A 
ATOM     85  C   UNL     1      -8.906   7.983   2.733  1.00  0.00     0.000 A 
ENDBRANCH  79  80
ENDBRANCH  76  79
ENDBRANCH  74  76
ENDBRANCH  72  74
ENDBRANCH  70  71
ENDBRANCH   1  69
TORSDOF 17
ENDMDL
MODEL 38
REMARK VINA RESULT:    -6.747      3.644      9.204
REMARK INTER + INTRA:         -28.800
REMARK INTER:                 -20.937
REMARK INTRA:                  -7.863
REMARK UNBOUND:                -8.643
REMARK SMILES C=C1C(=O)N[C@H](C)C(=O)N[C@@H](CC(C)C)C(=O)N[C@@H](C(=O)O)[C@H](C)C(=O)N[C@@H](CCCN=C(N)N)C(=O)N[C@@H](/C=C/C(C)=C/[C@H](C)[C@H](Cc2ccccc2)OC)[C@H](C)C(=O)N[C@@H](C(=O)O)CCC(=O)N1C
REMARK SMILES IDX 39 1 38 2 37 3 36 4 28 6 27 7 25 8 26 9 23 11 24 12 19 13
REMARK SMILES IDX 18 14 16 15 17 16 11 18 10 19 8 20 9 21 12 24 13 25 14 26
REMARK SMILES IDX 15 27 20 28 21 29 22 30 29 32 30 33 31 34 32 35 33 36 34 37
REMARK SMILES IDX 35 38 57 43 58 44 59 45 60 46 61 47 62 49 66 50 67 51 68 52
REMARK SMILES IDX 69 53 70 54 71 55 2 56 1 57 3 58 4 59 5 60 6 62 7 63 63 65
REMARK SMILES IDX 64 66 65 67 40 69 41 70 42 71 44 72 43 73 45 74 46 75 47 76
REMARK SMILES IDX 55 77 56 78 48 79 49 80 50 81 54 82 51 83 53 84 52 85
REMARK H PARENT 38 5 27 10 18 17 10 22 22 31 34 39 34 40 35 41 35 42 61 48
REMARK H PARENT 5 61 65 68
REMARK Flexibility Score:  369.900
ROOT
ATOM      1  C   UNL     1     -11.730   3.414   4.211  1.00  0.00     0.117 C 
ENDROOT
BRANCH   1   2
ATOM      2  N   UNL     1     -12.251   2.840   5.452  1.00  0.00    -0.347 N 
ATOM      3  O   UNL     1     -14.477   2.848   4.891  1.00  0.00    -0.273 OA
ATOM      4  C   UNL     1     -13.578   2.517   5.657  1.00  0.00     0.243 C 
ATOM      5  H   UNL     1     -11.611   2.612   6.198  1.00  0.00     0.164 HD
BRANCH   4   6
ATOM      6  C   UNL     1     -13.851   1.843   7.026  1.00  0.00     0.171 C 
BRANCH   6   7
ATOM      7  N   UNL     1     -14.688   2.711   7.870  1.00  0.00    -0.344 N 
ATOM      8  C   UNL     1     -14.211   3.922   8.322  1.00  0.00     0.226 C 
ATOM      9  O   UNL     1     -13.080   4.322   8.070  1.00  0.00    -0.275 OA
ATOM     10  H   UNL     1     -15.603   2.385   8.155  1.00  0.00     0.164 HD
BRANCH   8  11
ATOM     11  C   UNL     1     -15.211   4.725   9.134  1.00  0.00     0.109 C 
ATOM     12  C   UNL     1     -16.626   4.494   8.603  1.00  0.00     0.021 C 
BRANCH  11  13
ATOM     13  C   UNL     1     -15.026   4.425  10.635  1.00  0.00     0.204 C 
BRANCH  13  14
ATOM     14  N   UNL     1     -13.616   4.230  10.988  1.00  0.00    -0.340 N 
ATOM     15  C   UNL     1     -13.088   2.997  11.306  1.00  0.00     0.243 C 
ATOM     16  O   UNL     1     -13.750   1.962  11.257  1.00  0.00    -0.273 OA
ATOM     17  H   UNL     1     -13.053   5.059  11.194  1.00  0.00     0.164 HD
BRANCH  15  18
ATOM     18  C   UNL     1     -11.638   3.066  11.845  1.00  0.00     0.171 C 
BRANCH  18  19
ATOM     19  N   UNL     1     -10.755   2.848  10.701  1.00  0.00    -0.343 N 
ATOM     20  C   UNL     1     -10.020   1.686  10.559  1.00  0.00     0.242 CG0
ATOM     21  O   UNL     1      -9.972   0.842  11.450  1.00  0.00    -0.273 OA
ATOM     22  H   UNL     1     -10.672   3.568   9.993  1.00  0.00     0.164 HD
ATOM     23  G   UNL     1      -9.208   1.604   9.250  1.00  0.00     0.000 G0
ENDBRANCH  18  19
BRANCH  18  24
ATOM     24  C   UNL     1     -11.371   4.422  12.511  1.00  0.00     0.038 C 
BRANCH  24  25
ATOM     25  C   UNL     1     -11.451   4.410  14.052  1.00  0.00    -0.015 C 
ATOM     26  C   UNL     1     -12.871   4.641  14.567  1.00  0.00     0.007 C 
ATOM     27  C   UNL     1     -10.515   5.479  14.623  1.00  0.00     0.007 C 
ENDBRANCH  24  25
ENDBRANCH  18  24
ENDBRANCH  15  18
ENDBRANCH  13  14
BRANCH  13  28
ATOM     28  C   UNL     1     -15.573   5.530  11.544  1.00  0.00     0.327 C 
ATOM     29  O   UNL     1     -15.612   6.723  11.287  1.00  0.00    -0.250 OA
BRANCH  28  30
ATOM     30  O   UNL     1     -15.926   5.082  12.766  1.00  0.00    -0.480 OA
ATOM     31  H   UNL     1     -16.644   4.440  12.589  1.00  0.00     0.296 HD
ENDBRANCH  28  30
ENDBRANCH  13  28
ENDBRANCH  11  13
ENDBRANCH   8  11
ENDBRANCH   6   7
BRANCH   6  32
ATOM     32  C   UNL     1     -14.530   0.488   6.793  1.00  0.00     0.037 C 
BRANCH  32  33
ATOM     33  C   UNL     1     -15.731   0.274   7.724  1.00  0.00     0.026 C 
BRANCH  33  34
ATOM     34  C   UNL     1     -17.064   0.304   6.976  1.00  0.00     0.146 C 
BRANCH  34  35
ATOM     35  N   UNL     1     -17.437   1.691   6.734  1.00  0.00    -0.254 NA
ATOM     36  C   UNL     1     -17.463   2.118   5.527  1.00  0.00     0.185 C 
ATOM     37  N   UNL     1     -17.809   3.393   5.292  1.00  0.00    -0.370 N 
ATOM     38  N   UNL     1     -17.183   1.456   4.390  1.00  0.00    -0.370 N 
ATOM     39  H   UNL     1     -18.046   3.956   6.099  1.00  0.00     0.159 HD
ATOM     40  H   UNL     1     -18.021   3.753   4.377  1.00  0.00     0.159 HD
ATOM     41  H   UNL     1     -17.104   1.941   3.511  1.00  0.00     0.159 HD
ATOM     42  H   UNL     1     -16.892   0.492   4.417  1.00  0.00     0.159 HD
ENDBRANCH  34  35
ENDBRANCH  33  34
ENDBRANCH  32  33
ENDBRANCH   6  32
ENDBRANCH   4   6
ENDBRANCH   1   2
BRANCH   1  43
ATOM     43  C   UNL     1     -10.764   2.385   3.557  1.00  0.00     0.102 C 
ATOM     44  C   UNL     1     -11.400   1.001   3.339  1.00  0.00     0.020 C 
BRANCH  43  45
ATOM     45  C   UNL     1      -9.423   2.343   4.295  1.00  0.00     0.225 C 
ATOM     46  O   UNL     1      -9.324   2.453   5.514  1.00  0.00    -0.275 OA
ATOM     47  N   UNL     1      -8.307   2.266   3.493  1.00  0.00    -0.342 N 
ATOM     48  H   UNL     1      -8.408   2.024   2.517  1.00  0.00     0.164 HD
BRANCH  47  49
ATOM     49  C   UNL     1      -6.959   2.182   4.062  1.00  0.00     0.192 C 
BRANCH  49  50
ATOM     50  C   UNL     1      -6.330   3.577   4.104  1.00  0.00     0.047 C 
BRANCH  50  51
ATOM     51  C   UNL     1      -5.461   3.786   5.352  1.00  0.00     0.103 C 
BRANCH  51  52
ATOM     52  C   UNL     1      -5.826   5.069   6.096  1.00  0.00     0.226 C 
ATOM     53  O   UNL     1      -5.042   6.021   6.092  1.00  0.00    -0.275 OA
BRANCH  52  54
ATOM     54  N   UNL     1      -7.100   5.108   6.691  1.00  0.00    -0.311 N 
ATOM     55  C   UNL     1      -8.260   5.636   5.961  1.00  0.00     0.153 C 
BRANCH  54  56
ATOM     56  C   UNL     1      -7.312   4.639   7.999  1.00  0.00     0.102 C 
ATOM     57  C   UNL     1      -7.351   5.413   9.095  1.00  0.00     0.043 C 
BRANCH  56  58
ATOM     58  C   UNL     1      -7.567   3.174   8.265  1.00  0.00     0.268 C 
ATOM     59  O   UNL     1      -6.747   2.298   8.029  1.00  0.00    -0.268 OA
ATOM     60  N   UNL     1      -8.784   2.937   8.859  1.00  0.00    -0.339 N 
ATOM     61  H   UNL     1      -9.412   3.717   9.011  1.00  0.00     0.164 HD
BRANCH  60  62
ATOM     62  C   UNL     1      -9.207   1.596   9.260  1.00  0.00     0.168 CG0
ATOM     63  C   UNL     1     -10.027   0.929   8.162  1.00  0.00     0.041 C 
ATOM     64  G   UNL     1     -10.016   1.679  10.571  1.00  0.00     0.000 G0
ENDBRANCH  60  62
ENDBRANCH  56  58
ENDBRANCH  54  56
ENDBRANCH  52  54
ENDBRANCH  51  52
ENDBRANCH  50  51
ENDBRANCH  49  50
BRANCH  49  65
ATOM     65  C   UNL     1      -6.057   1.242   3.247  1.00  0.00     0.326 C 
ATOM     66  O   UNL     1      -5.109   0.607   3.687  1.00  0.00    -0.250 OA
BRANCH  65  67
ATOM     67  O   UNL     1      -6.343   1.189   1.928  1.00  0.00    -0.480 OA
ATOM     68  H   UNL     1      -6.765   0.310   1.817  1.00  0.00     0.296 HD
ENDBRANCH  65  67
ENDBRANCH  49  65
ENDBRANCH  47  49
ENDBRANCH  43  45
ENDBRANCH   1  43
BRANCH   1  69
ATOM     69  C   UNL     1     -11.202   4.791   4.570  1.00  0.00    -0.001 C 
ATOM     70  C   UNL     1     -11.478   5.956   3.959  1.00  0.00     0.001 C 
BRANCH  70  71
ATOM     71  C   UNL     1     -10.978   7.283   4.328  1.00  0.00    -0.055 C 
ATOM     72  C   UNL     1     -11.546   7.895   5.388  1.00  0.00    -0.018 C 
ATOM     73  C   UNL     1      -9.861   7.866   3.503  1.00  0.00     0.044 C 
BRANCH  72  74
ATOM     74  C   UNL     1     -11.235   9.255   5.995  1.00  0.00     0.038 C 
ATOM     75  C   UNL     1     -10.819   9.016   7.452  1.00  0.00     0.015 C 
BRANCH  74  76
ATOM     76  C   UNL     1     -12.474  10.180   5.814  1.00  0.00     0.128 C 
BRANCH  76  77
ATOM     77  O   UNL     1     -12.120  11.325   5.019  1.00  0.00    -0.381 OA
ATOM     78  C   UNL     1     -10.759  11.336   4.608  1.00  0.00     0.195 C 
ENDBRANCH  76  77
BRANCH  76  79
ATOM     79  C   UNL     1     -13.733   9.449   5.284  1.00  0.00     0.068 C 
BRANCH  79  80
ATOM     80  C   UNL     1     -14.918   9.321   6.210  1.00  0.00    -0.045 A 
ATOM     81  C   UNL     1     -16.009  10.194   6.111  1.00  0.00     0.004 A 
ATOM     82  C   UNL     1     -14.932   8.335   7.208  1.00  0.00     0.004 A 
ATOM     83  C   UNL     1     -17.096  10.078   6.981  1.00  0.00     0.000 A 
ATOM     84  C   UNL     1     -16.019   8.220   8.078  1.00  0.00     0.000 A 
ATOM     85  C   UNL     1     -17.101   9.090   7.963  1.00  0.00     0.000 A 
ENDBRANCH  79  80
ENDBRANCH  76  79
ENDBRANCH  74  76
ENDBRANCH  72  74
ENDBRANCH  70  71
ENDBRANCH   1  69
TORSDOF 17
ENDMDL
MODEL 39
REMARK VINA RESULT:    -6.732      3.326      8.890
REMARK INTER + INTRA:         -28.755
REMARK INTER:                 -20.558
REMARK INTRA:                  -8.197
REMARK UNBOUND:                -8.643
REMARK SMILES C=C1C(=O)N[C@H](C)C(=O)N[C@@H](CC(C)C)C(=O)N[C@@H](C(=O)O)[C@H](C)C(=O)N[C@@H](CCCN=C(N)N)C(=O)N[C@@H](/C=C/C(C)=C/[C@H](C)[C@H](Cc2ccccc2)OC)[C@H](C)C(=O)N[C@@H](C(=O)O)CCC(=O)N1C
REMARK SMILES IDX 39 1 38 2 37 3 36 4 28 6 27 7 25 8 26 9 23 11 24 12 19 13
REMARK SMILES IDX 18 14 16 15 17 16 11 18 10 19 8 20 9 21 12 24 13 25 14 26
REMARK SMILES IDX 15 27 20 28 21 29 22 30 29 32 30 33 31 34 32 35 33 36 34 37
REMARK SMILES IDX 35 38 57 43 58 44 59 45 60 46 61 47 62 49 66 50 67 51 68 52
REMARK SMILES IDX 69 53 70 54 71 55 2 56 1 57 3 58 4 59 5 60 6 62 7 63 63 65
REMARK SMILES IDX 64 66 65 67 40 69 41 70 42 71 44 72 43 73 45 74 46 75 47 76
REMARK SMILES IDX 55 77 56 78 48 79 49 80 50 81 54 82 51 83 53 84 52 85
REMARK H PARENT 38 5 27 10 18 17 10 22 22 31 34 39 34 40 35 41 35 42 61 48
REMARK H PARENT 5 61 65 68
REMARK Flexibility Score:  369.900
ROOT
ATOM      1  C   UNL     1     -13.922   3.880  11.985  1.00  0.00     0.117 C 
ENDROOT
BRANCH   1   2
ATOM      2  N   UNL     1     -14.557   4.479  10.811  1.00  0.00    -0.347 N 
ATOM      3  O   UNL     1     -13.828   6.633  11.126  1.00  0.00    -0.273 OA
ATOM      4  C   UNL     1     -14.383   5.794  10.424  1.00  0.00     0.243 C 
ATOM      5  H   UNL     1     -15.121   3.902  10.205  1.00  0.00     0.164 HD
BRANCH   4   6
ATOM      6  C   UNL     1     -15.096   6.152   9.096  1.00  0.00     0.171 C 
BRANCH   6   7
ATOM      7  N   UNL     1     -14.146   6.111   7.973  1.00  0.00    -0.344 N 
ATOM      8  C   UNL     1     -13.780   7.267   7.319  1.00  0.00     0.226 C 
ATOM      9  O   UNL     1     -14.236   8.365   7.615  1.00  0.00    -0.275 OA
ATOM     10  H   UNL     1     -13.800   5.214   7.656  1.00  0.00     0.164 HD
BRANCH   8  11
ATOM     11  C   UNL     1     -12.751   7.066   6.221  1.00  0.00     0.109 C 
ATOM     12  C   UNL     1     -12.773   8.251   5.255  1.00  0.00     0.021 C 
BRANCH  11  13
ATOM     13  C   UNL     1     -11.374   6.765   6.845  1.00  0.00     0.204 C 
BRANCH  13  14
ATOM     14  N   UNL     1     -10.790   5.526   6.322  1.00  0.00    -0.340 N 
ATOM     15  C   UNL     1     -10.021   4.678   7.090  1.00  0.00     0.243 C 
ATOM     16  O   UNL     1      -9.821   4.871   8.288  1.00  0.00    -0.273 OA
ATOM     17  H   UNL     1     -10.790   5.385   5.308  1.00  0.00     0.164 HD
BRANCH  15  18
ATOM     18  C   UNL     1      -9.343   3.550   6.275  1.00  0.00     0.171 C 
BRANCH  18  19
ATOM     19  N   UNL     1     -10.413   2.822   5.597  1.00  0.00    -0.343 N 
ATOM     20  C   UNL     1     -10.432   1.442   5.537  1.00  0.00     0.242 CG0
ATOM     21  O   UNL     1      -9.485   0.767   5.934  1.00  0.00    -0.273 OA
ATOM     22  H   UNL     1     -11.162   3.340   5.151  1.00  0.00     0.164 HD
ATOM     23  G   UNL     1     -11.681   0.851   4.849  1.00  0.00     0.000 G0
ENDBRANCH  18  19
BRANCH  18  24
ATOM     24  C   UNL     1      -8.338   4.133   5.274  1.00  0.00     0.038 C 
BRANCH  24  25
ATOM     25  C   UNL     1      -7.059   3.291   5.080  1.00  0.00    -0.015 C 
ATOM     26  C   UNL     1      -6.614   2.597   6.368  1.00  0.00     0.007 C 
ATOM     27  C   UNL     1      -5.930   4.183   4.558  1.00  0.00     0.007 C 
ENDBRANCH  24  25
ENDBRANCH  18  24
ENDBRANCH  15  18
ENDBRANCH  13  14
BRANCH  13  28
ATOM     28  C   UNL     1     -10.350   7.881   6.617  1.00  0.00     0.327 C 
ATOM     29  O   UNL     1      -9.440   7.871   5.803  1.00  0.00    -0.250 OA
BRANCH  28  30
ATOM     30  O   UNL     1     -10.460   8.889   7.506  1.00  0.00    -0.480 OA
ATOM     31  H   UNL     1     -11.095   8.555   8.173  1.00  0.00     0.296 HD
ENDBRANCH  28  30
ENDBRANCH  13  28
ENDBRANCH  11  13
ENDBRANCH   8  11
ENDBRANCH   6   7
BRANCH   6  32
ATOM     32  C   UNL     1     -16.255   5.175   8.868  1.00  0.00     0.037 C 
BRANCH  32  33
ATOM     33  C   UNL     1     -17.572   5.901   8.556  1.00  0.00     0.026 C 
BRANCH  33  34
ATOM     34  C   UNL     1     -17.431   7.422   8.622  1.00  0.00     0.146 C 
BRANCH  34  35
ATOM     35  N   UNL     1     -18.382   8.023   7.697  1.00  0.00    -0.254 NA
ATOM     36  C   UNL     1     -17.996   9.003   6.969  1.00  0.00     0.185 C 
ATOM     37  N   UNL     1     -18.862   9.561   6.109  1.00  0.00    -0.370 N 
ATOM     38  N   UNL     1     -16.790   9.597   6.922  1.00  0.00    -0.370 N 
ATOM     39  H   UNL     1     -19.791   9.161   6.078  1.00  0.00     0.159 HD
ATOM     40  H   UNL     1     -18.592  10.208   5.388  1.00  0.00     0.159 HD
ATOM     41  H   UNL     1     -16.649  10.451   6.407  1.00  0.00     0.159 HD
ATOM     42  H   UNL     1     -16.044   9.291   7.527  1.00  0.00     0.159 HD
ENDBRANCH  34  35
ENDBRANCH  33  34
ENDBRANCH  32  33
ENDBRANCH   6  32
ENDBRANCH   4   6
ENDBRANCH   1   2
BRANCH   1  43
ATOM     43  C   UNL     1     -12.538   3.308  11.562  1.00  0.00     0.102 C 
ATOM     44  C   UNL     1     -11.407   4.350  11.605  1.00  0.00     0.020 C 
BRANCH  43  45
ATOM     45  C   UNL     1     -12.637   2.553  10.234  1.00  0.00     0.225 C 
ATOM     46  O   UNL     1     -12.408   3.075   9.146  1.00  0.00    -0.275 OA
ATOM     47  N   UNL     1     -13.095   1.258  10.321  1.00  0.00    -0.342 N 
ATOM     48  H   UNL     1     -13.132   0.800  11.221  1.00  0.00     0.164 HD
BRANCH  47  49
ATOM     49  C   UNL     1     -13.207   0.404   9.135  1.00  0.00     0.192 C 
BRANCH  49  50
ATOM     50  C   UNL     1     -14.631  -0.151   9.033  1.00  0.00     0.047 C 
BRANCH  50  51
ATOM     51  C   UNL     1     -14.932  -0.729   7.644  1.00  0.00     0.103 C 
BRANCH  51  52
ATOM     52  C   UNL     1     -16.319  -0.329   7.145  1.00  0.00     0.226 C 
ATOM     53  O   UNL     1     -17.316  -0.902   7.589  1.00  0.00    -0.275 OA
BRANCH  52  54
ATOM     54  N   UNL     1     -16.374   0.748   6.241  1.00  0.00    -0.311 N 
ATOM     55  C   UNL     1     -17.626   1.099   5.558  1.00  0.00     0.153 C 
BRANCH  54  56
ATOM     56  C   UNL     1     -15.240   1.530   5.964  1.00  0.00     0.102 C 
ATOM     57  C   UNL     1     -14.998   2.744   6.483  1.00  0.00     0.043 C 
BRANCH  56  58
ATOM     58  C   UNL     1     -14.147   1.015   5.057  1.00  0.00     0.268 C 
ATOM     59  O   UNL     1     -14.363   0.535   3.953  1.00  0.00    -0.268 OA
ATOM     60  N   UNL     1     -12.886   1.201   5.572  1.00  0.00    -0.339 N 
ATOM     61  H   UNL     1     -12.792   1.597   6.500  1.00  0.00     0.164 HD
BRANCH  60  62
ATOM     62  C   UNL     1     -11.680   0.832   4.831  1.00  0.00     0.168 CG0
ATOM     63  C   UNL     1     -11.543  -0.682   4.729  1.00  0.00     0.041 C 
ATOM     64  G   UNL     1     -10.443   1.447   5.518  1.00  0.00     0.000 G0
ENDBRANCH  60  62
ENDBRANCH  56  58
ENDBRANCH  54  56
ENDBRANCH  52  54
ENDBRANCH  51  52
ENDBRANCH  50  51
ENDBRANCH  49  50
BRANCH  49  65
ATOM     65  C   UNL     1     -12.209  -0.763   9.181  1.00  0.00     0.326 C 
ATOM     66  O   UNL     1     -11.405  -1.045   8.304  1.00  0.00    -0.250 OA
BRANCH  65  67
ATOM     67  O   UNL     1     -12.306  -1.545  10.279  1.00  0.00    -0.480 OA
ATOM     68  H   UNL     1     -12.331  -2.456   9.913  1.00  0.00     0.296 HD
ENDBRANCH  65  67
ENDBRANCH  49  65
ENDBRANCH  47  49
ENDBRANCH  43  45
ENDBRANCH   1  43
BRANCH   1  69
ATOM     69  C   UNL     1     -14.950   2.940  12.590  1.00  0.00    -0.001 C 
ATOM     70  C   UNL     1     -15.418   2.944  13.850  1.00  0.00     0.001 C 
BRANCH  70  71
ATOM     71  C   UNL     1     -16.426   2.045  14.416  1.00  0.00    -0.055 C 
ATOM     72  C   UNL     1     -16.667   0.885  13.770  1.00  0.00    -0.018 C 
ATOM     73  C   UNL     1     -17.118   2.475  15.684  1.00  0.00     0.044 C 
BRANCH  72  74
ATOM     74  C   UNL     1     -17.642  -0.229  14.121  1.00  0.00     0.038 C 
ATOM     75  C   UNL     1     -17.059  -0.978  15.326  1.00  0.00     0.015 C 
BRANCH  74  76
ATOM     76  C   UNL     1     -17.877  -1.107  12.857  1.00  0.00     0.128 C 
BRANCH  76  77
ATOM     77  O   UNL     1     -17.851  -2.499  13.214  1.00  0.00    -0.381 OA
ATOM     78  C   UNL     1     -19.129  -3.120  13.188  1.00  0.00     0.195 C 
ENDBRANCH  76  77
BRANCH  76  79
ATOM     79  C   UNL     1     -19.140  -0.719  12.047  1.00  0.00     0.068 C 
BRANCH  79  80
ATOM     80  C   UNL     1     -18.990   0.309  10.953  1.00  0.00    -0.045 A 
ATOM     81  C   UNL     1     -20.078   0.670  10.147  1.00  0.00     0.004 A 
ATOM     82  C   UNL     1     -17.742   0.903  10.706  1.00  0.00     0.004 A 
ATOM     83  C   UNL     1     -19.927   1.612   9.127  1.00  0.00     0.000 A 
ATOM     84  C   UNL     1     -17.593   1.845   9.686  1.00  0.00     0.000 A 
ATOM     85  C   UNL     1     -18.685   2.200   8.898  1.00  0.00     0.000 A 
ENDBRANCH  79  80
ENDBRANCH  76  79
ENDBRANCH  74  76
ENDBRANCH  72  74
ENDBRANCH  70  71
ENDBRANCH   1  69
TORSDOF 17
ENDMDL
MODEL 40
REMARK VINA RESULT:    -6.724      3.483      7.538
REMARK INTER + INTRA:         -28.731
REMARK INTER:                 -19.625
REMARK INTRA:                  -9.106
REMARK UNBOUND:                -8.643
REMARK SMILES C=C1C(=O)N[C@H](C)C(=O)N[C@@H](CC(C)C)C(=O)N[C@@H](C(=O)O)[C@H](C)C(=O)N[C@@H](CCCN=C(N)N)C(=O)N[C@@H](/C=C/C(C)=C/[C@H](C)[C@H](Cc2ccccc2)OC)[C@H](C)C(=O)N[C@@H](C(=O)O)CCC(=O)N1C
REMARK SMILES IDX 39 1 38 2 37 3 36 4 28 6 27 7 25 8 26 9 23 11 24 12 19 13
REMARK SMILES IDX 18 14 16 15 17 16 11 18 10 19 8 20 9 21 12 24 13 25 14 26
REMARK SMILES IDX 15 27 20 28 21 29 22 30 29 32 30 33 31 34 32 35 33 36 34 37
REMARK SMILES IDX 35 38 57 43 58 44 59 45 60 46 61 47 62 49 66 50 67 51 68 52
REMARK SMILES IDX 69 53 70 54 71 55 2 56 1 57 3 58 4 59 5 60 6 62 7 63 63 65
REMARK SMILES IDX 64 66 65 67 40 69 41 70 42 71 44 72 43 73 45 74 46 75 47 76
REMARK SMILES IDX 55 77 56 78 48 79 49 80 50 81 54 82 51 83 53 84 52 85
REMARK H PARENT 38 5 27 10 18 17 10 22 22 31 34 39 34 40 35 41 35 42 61 48
REMARK H PARENT 5 61 65 68
REMARK Flexibility Score:  369.900
ROOT
ATOM      1  C   UNL     1     -12.254   2.867   4.284  1.00  0.00     0.117 C 
ENDROOT
BRANCH   1   2
ATOM      2  N   UNL     1     -13.286   2.571   5.279  1.00  0.00    -0.347 N 
ATOM      3  O   UNL     1     -15.069   2.406   3.842  1.00  0.00    -0.273 OA
ATOM      4  C   UNL     1     -14.598   2.273   4.967  1.00  0.00     0.243 C 
ATOM      5  H   UNL     1     -13.034   2.528   6.255  1.00  0.00     0.164 HD
BRANCH   4   6
ATOM      6  C   UNL     1     -15.466   1.912   6.200  1.00  0.00     0.171 C 
BRANCH   6   7
ATOM      7  N   UNL     1     -16.164   3.106   6.704  1.00  0.00    -0.344 N 
ATOM      8  C   UNL     1     -15.565   3.930   7.632  1.00  0.00     0.226 C 
ATOM      9  O   UNL     1     -14.453   3.707   8.094  1.00  0.00    -0.275 OA
ATOM     10  H   UNL     1     -17.111   3.287   6.397  1.00  0.00     0.164 HD
BRANCH   8  11
ATOM     11  C   UNL     1     -16.390   5.148   8.011  1.00  0.00     0.109 C 
ATOM     12  C   UNL     1     -17.828   4.733   8.323  1.00  0.00     0.021 C 
BRANCH  11  13
ATOM     13  C   UNL     1     -15.681   5.928   9.136  1.00  0.00     0.204 C 
BRANCH  13  14
ATOM     14  N   UNL     1     -15.526   5.124  10.352  1.00  0.00    -0.340 N 
ATOM     15  C   UNL     1     -15.603   5.660  11.619  1.00  0.00     0.243 C 
ATOM     16  O   UNL     1     -15.868   6.844  11.820  1.00  0.00    -0.273 OA
ATOM     17  H   UNL     1     -15.156   4.174  10.256  1.00  0.00     0.164 HD
BRANCH  15  18
ATOM     18  C   UNL     1     -15.201   4.666  12.737  1.00  0.00     0.171 C 
BRANCH  18  19
ATOM     19  N   UNL     1     -13.768   4.424  12.587  1.00  0.00    -0.343 N 
ATOM     20  C   UNL     1     -13.280   3.424  11.768  1.00  0.00     0.242 CG0
ATOM     21  O   UNL     1     -14.028   2.608  11.233  1.00  0.00    -0.273 OA
ATOM     22  H   UNL     1     -13.110   4.998  13.100  1.00  0.00     0.164 HD
ATOM     23  G   UNL     1     -11.741   3.371  11.675  1.00  0.00     0.000 G0
ENDBRANCH  18  19
BRANCH  18  24
ATOM     24  C   UNL     1     -15.532   5.243  14.119  1.00  0.00     0.038 C 
BRANCH  24  25
ATOM     25  C   UNL     1     -15.813   4.187  15.208  1.00  0.00    -0.015 C 
ATOM     26  C   UNL     1     -16.442   2.914  14.640  1.00  0.00     0.007 C 
ATOM     27  C   UNL     1     -16.732   4.782  16.278  1.00  0.00     0.007 C 
ENDBRANCH  24  25
ENDBRANCH  18  24
ENDBRANCH  15  18
ENDBRANCH  13  14
BRANCH  13  28
ATOM     28  C   UNL     1     -14.288   6.426   8.741  1.00  0.00     0.327 C 
ATOM     29  O   UNL     1     -13.291   6.423   9.447  1.00  0.00    -0.250 OA
BRANCH  28  30
ATOM     30  O   UNL     1     -14.260   7.007   7.524  1.00  0.00    -0.480 OA
ATOM     31  H   UNL     1     -13.630   6.460   7.010  1.00  0.00     0.296 HD
ENDBRANCH  28  30
ENDBRANCH  13  28
ENDBRANCH  11  13
ENDBRANCH   8  11
ENDBRANCH   6   7
BRANCH   6  32
ATOM     32  C   UNL     1     -16.465   0.818   5.810  1.00  0.00     0.037 C 
BRANCH  32  33
ATOM     33  C   UNL     1     -17.778   0.924   6.599  1.00  0.00     0.026 C 
BRANCH  33  34
ATOM     34  C   UNL     1     -17.792   0.024   7.835  1.00  0.00     0.146 C 
BRANCH  34  35
ATOM     35  N   UNL     1     -17.956   0.856   9.019  1.00  0.00    -0.254 NA
ATOM     36  C   UNL     1     -16.915   1.174   9.696  1.00  0.00     0.185 C 
ATOM     37  N   UNL     1     -17.054   1.944  10.786  1.00  0.00    -0.370 N 
ATOM     38  N   UNL     1     -15.631   0.841   9.475  1.00  0.00    -0.370 N 
ATOM     39  H   UNL     1     -17.993   2.245  11.013  1.00  0.00     0.159 HD
ATOM     40  H   UNL     1     -16.282   2.376  11.263  1.00  0.00     0.159 HD
ATOM     41  H   UNL     1     -14.918   1.037  10.159  1.00  0.00     0.159 HD
ATOM     42  H   UNL     1     -15.380   0.251   8.698  1.00  0.00     0.159 HD
ENDBRANCH  34  35
ENDBRANCH  33  34
ENDBRANCH  32  33
ENDBRANCH   6  32
ENDBRANCH   4   6
ENDBRANCH   1   2
BRANCH   1  43
ATOM     43  C   UNL     1     -11.412   1.580   4.046  1.00  0.00     0.102 C 
ATOM     44  C   UNL     1     -11.946   0.703   2.901  1.00  0.00     0.020 C 
BRANCH  43  45
ATOM     45  C   UNL     1     -11.186   0.821   5.357  1.00  0.00     0.225 C 
ATOM     46  O   UNL     1     -10.510   1.264   6.281  1.00  0.00    -0.275 OA
ATOM     47  N   UNL     1     -11.714  -0.449   5.405  1.00  0.00    -0.342 N 
ATOM     48  H   UNL     1     -12.387  -0.737   4.709  1.00  0.00     0.164 HD
BRANCH  47  49
ATOM     49  C   UNL     1     -11.606  -1.279   6.608  1.00  0.00     0.192 C 
BRANCH  49  50
ATOM     50  C   UNL     1     -10.377  -2.185   6.500  1.00  0.00     0.047 C 
BRANCH  50  51
ATOM     51  C   UNL     1      -9.152  -1.592   7.208  1.00  0.00     0.103 C 
BRANCH  51  52
ATOM     52  C   UNL     1      -9.346  -1.514   8.721  1.00  0.00     0.226 C 
ATOM     53  O   UNL     1      -9.284  -2.542   9.398  1.00  0.00    -0.275 OA
BRANCH  52  54
ATOM     54  N   UNL     1      -9.513  -0.227   9.266  1.00  0.00    -0.311 N 
ATOM     55  C   UNL     1      -8.394   0.723   9.319  1.00  0.00     0.153 C 
BRANCH  54  56
ATOM     56  C   UNL     1     -10.752   0.199   9.772  1.00  0.00     0.102 C 
ATOM     57  C   UNL     1     -11.746  -0.618  10.159  1.00  0.00     0.043 C 
BRANCH  56  58
ATOM     58  C   UNL     1     -11.047   1.668   9.966  1.00  0.00     0.268 C 
ATOM     59  O   UNL     1     -11.063   2.474   9.046  1.00  0.00    -0.268 OA
ATOM     60  N   UNL     1     -11.360   1.989  11.265  1.00  0.00    -0.339 N 
ATOM     61  H   UNL     1     -11.314   1.264  11.971  1.00  0.00     0.164 HD
BRANCH  60  62
ATOM     62  C   UNL     1     -11.739   3.344  11.663  1.00  0.00     0.168 CG0
ATOM     63  C   UNL     1     -11.091   3.727  12.988  1.00  0.00     0.041 C 
ATOM     64  G   UNL     1     -13.275   3.444  11.758  1.00  0.00     0.000 G0
ENDBRANCH  60  62
ENDBRANCH  56  58
ENDBRANCH  54  56
ENDBRANCH  52  54
ENDBRANCH  51  52
ENDBRANCH  50  51
ENDBRANCH  49  50
BRANCH  49  65
ATOM     65  C   UNL     1     -12.859  -2.144   6.815  1.00  0.00     0.326 C 
ATOM     66  O   UNL     1     -13.930  -1.750   7.255  1.00  0.00    -0.250 OA
BRANCH  65  67
ATOM     67  O   UNL     1     -12.696  -3.453   6.523  1.00  0.00    -0.480 OA
ATOM     68  H   UNL     1     -12.065  -3.445   5.771  1.00  0.00     0.296 HD
ENDBRANCH  65  67
ENDBRANCH  49  65
ENDBRANCH  47  49
ENDBRANCH  43  45
ENDBRANCH   1  43
BRANCH   1  69
ATOM     69  C   UNL     1     -11.552   4.124   4.763  1.00  0.00    -0.001 C 
ATOM     70  C   UNL     1     -11.349   4.513   6.034  1.00  0.00     0.001 C 
BRANCH  70  71
ATOM     71  C   UNL     1     -10.651   5.719   6.483  1.00  0.00    -0.055 C 
ATOM     72  C   UNL     1     -11.121   6.911   6.060  1.00  0.00    -0.018 C 
ATOM     73  C   UNL     1      -9.462   5.545   7.393  1.00  0.00     0.044 C 
BRANCH  72  74
ATOM     74  C   UNL     1     -10.608   8.312   6.364  1.00  0.00     0.038 C 
ATOM     75  C   UNL     1     -11.627   8.974   7.300  1.00  0.00     0.015 C 
BRANCH  74  76
ATOM     76  C   UNL     1     -10.374   9.062   5.019  1.00  0.00     0.128 C 
BRANCH  76  77
ATOM     77  O   UNL     1     -10.498  10.480   5.220  1.00  0.00    -0.381 OA
ATOM     78  C   UNL     1      -9.519  11.242   4.527  1.00  0.00     0.195 C 
ENDBRANCH  76  77
BRANCH  76  79
ATOM     79  C   UNL     1      -9.057   8.671   4.302  1.00  0.00     0.068 C 
BRANCH  79  80
ATOM     80  C   UNL     1      -8.981   7.309   3.656  1.00  0.00    -0.045 A 
ATOM     81  C   UNL     1      -8.015   6.374   4.053  1.00  0.00     0.004 A 
ATOM     82  C   UNL     1      -9.865   6.966   2.622  1.00  0.00     0.004 A 
ATOM     83  C   UNL     1      -7.942   5.121   3.441  1.00  0.00     0.000 A 
ATOM     84  C   UNL     1      -9.791   5.713   2.010  1.00  0.00     0.000 A 
ATOM     85  C   UNL     1      -8.831   4.791   2.420  1.00  0.00     0.000 A 
ENDBRANCH  79  80
ENDBRANCH  76  79
ENDBRANCH  74  76
ENDBRANCH  72  74
ENDBRANCH  70  71
ENDBRANCH   1  69
TORSDOF 17
ENDMDL
MODEL 41
REMARK VINA RESULT:    -6.647      3.257      7.033
REMARK INTER + INTRA:         -28.502
REMARK INTER:                 -21.435
REMARK INTRA:                  -7.067
REMARK UNBOUND:                -8.643
REMARK SMILES C=C1C(=O)N[C@H](C)C(=O)N[C@@H](CC(C)C)C(=O)N[C@@H](C(=O)O)[C@H](C)C(=O)N[C@@H](CCCN=C(N)N)C(=O)N[C@@H](/C=C/C(C)=C/[C@H](C)[C@H](Cc2ccccc2)OC)[C@H](C)C(=O)N[C@@H](C(=O)O)CCC(=O)N1C
REMARK SMILES IDX 39 1 38 2 37 3 36 4 28 6 27 7 25 8 26 9 23 11 24 12 19 13
REMARK SMILES IDX 18 14 16 15 17 16 11 18 10 19 8 20 9 21 12 24 13 25 14 26
REMARK SMILES IDX 15 27 20 28 21 29 22 30 29 32 30 33 31 34 32 35 33 36 34 37
REMARK SMILES IDX 35 38 57 43 58 44 59 45 60 46 61 47 62 49 66 50 67 51 68 52
REMARK SMILES IDX 69 53 70 54 71 55 2 56 1 57 3 58 4 59 5 60 6 62 7 63 63 65
REMARK SMILES IDX 64 66 65 67 40 69 41 70 42 71 44 72 43 73 45 74 46 75 47 76
REMARK SMILES IDX 55 77 56 78 48 79 49 80 50 81 54 82 51 83 53 84 52 85
REMARK H PARENT 38 5 27 10 18 17 10 22 22 31 34 39 34 40 35 41 35 42 61 48
REMARK H PARENT 5 61 65 68
REMARK Flexibility Score:  369.900
ROOT
ATOM      1  C   UNL     1     -13.161   3.823  10.181  1.00  0.00     0.117 C 
ENDROOT
BRANCH   1   2
ATOM      2  N   UNL     1     -12.113   3.030   9.536  1.00  0.00    -0.347 N 
ATOM      3  O   UNL     1     -10.356   3.707  10.848  1.00  0.00    -0.273 OA
ATOM      4  C   UNL     1     -10.807   2.966   9.981  1.00  0.00     0.243 C 
ATOM      5  H   UNL     1     -12.349   2.449   8.746  1.00  0.00     0.164 HD
BRANCH   4   6
ATOM      6  C   UNL     1      -9.920   1.986   9.172  1.00  0.00     0.171 C 
BRANCH   6   7
ATOM      7  N   UNL     1      -8.750   2.688   8.620  1.00  0.00    -0.344 N 
ATOM      8  C   UNL     1      -8.910   3.726   7.728  1.00  0.00     0.226 C 
ATOM      9  O   UNL     1     -10.010   4.098   7.338  1.00  0.00    -0.275 OA
ATOM     10  H   UNL     1      -7.823   2.365   8.866  1.00  0.00     0.164 HD
BRANCH   8  11
ATOM     11  C   UNL     1      -7.611   4.382   7.293  1.00  0.00     0.109 C 
ATOM     12  C   UNL     1      -6.534   4.172   8.357  1.00  0.00     0.021 C 
BRANCH  11  13
ATOM     13  C   UNL     1      -7.231   3.898   5.880  1.00  0.00     0.204 C 
BRANCH  13  14
ATOM     14  N   UNL     1      -8.410   3.665   5.040  1.00  0.00    -0.340 N 
ATOM     15  C   UNL     1      -8.738   2.424   4.538  1.00  0.00     0.243 C 
ATOM     16  O   UNL     1      -8.097   1.411   4.811  1.00  0.00    -0.273 OA
ATOM     17  H   UNL     1      -8.893   4.481   4.655  1.00  0.00     0.164 HD
BRANCH  15  18
ATOM     18  C   UNL     1      -9.898   2.458   3.514  1.00  0.00     0.171 C 
BRANCH  18  19
ATOM     19  N   UNL     1      -9.329   2.072   2.224  1.00  0.00    -0.343 N 
ATOM     20  C   UNL     1      -8.855   3.009   1.326  1.00  0.00     0.242 CG0
ATOM     21  O   UNL     1      -9.011   4.214   1.512  1.00  0.00    -0.273 OA
ATOM     22  H   UNL     1      -9.285   1.091   1.974  1.00  0.00     0.164 HD
ATOM     23  G   UNL     1      -8.220   2.409   0.055  1.00  0.00     0.000 G0
ENDBRANCH  18  19
BRANCH  18  24
ATOM     24  C   UNL     1     -11.025   1.508   3.939  1.00  0.00     0.038 C 
BRANCH  24  25
ATOM     25  C   UNL     1     -12.230   2.198   4.611  1.00  0.00    -0.015 C 
ATOM     26  C   UNL     1     -12.188   3.720   4.469  1.00  0.00     0.007 C 
ATOM     27  C   UNL     1     -12.279   1.819   6.094  1.00  0.00     0.007 C 
ENDBRANCH  24  25
ENDBRANCH  18  24
ENDBRANCH  15  18
ENDBRANCH  13  14
BRANCH  13  28
ATOM     28  C   UNL     1      -6.325   4.879   5.129  1.00  0.00     0.327 C 
ATOM     29  O   UNL     1      -6.326   6.095   5.243  1.00  0.00    -0.250 OA
BRANCH  28  30
ATOM     30  O   UNL     1      -5.557   4.281   4.195  1.00  0.00    -0.480 OA
ATOM     31  H   UNL     1      -5.761   4.766   3.369  1.00  0.00     0.296 HD
ENDBRANCH  28  30
ENDBRANCH  13  28
ENDBRANCH  11  13
ENDBRANCH   8  11
ENDBRANCH   6   7
BRANCH   6  32
ATOM     32  C   UNL     1      -9.487   0.831  10.082  1.00  0.00     0.037 C 
BRANCH  32  33
ATOM     33  C   UNL     1     -10.583  -0.233  10.229  1.00  0.00     0.026 C 
BRANCH  33  34
ATOM     34  C   UNL     1     -11.169  -0.660   8.883  1.00  0.00     0.146 C 
BRANCH  34  35
ATOM     35  N   UNL     1     -10.423  -1.810   8.389  1.00  0.00    -0.254 NA
ATOM     36  C   UNL     1      -9.733  -1.681   7.318  1.00  0.00     0.185 C 
ATOM     37  N   UNL     1      -9.038  -2.732   6.857  1.00  0.00    -0.370 N 
ATOM     38  N   UNL     1      -9.584  -0.598   6.534  1.00  0.00    -0.370 N 
ATOM     39  H   UNL     1      -9.091  -3.585   7.400  1.00  0.00     0.159 HD
ATOM     40  H   UNL     1      -8.344  -2.665   6.132  1.00  0.00     0.159 HD
ATOM     41  H   UNL     1      -9.126  -0.661   5.640  1.00  0.00     0.159 HD
ATOM     42  H   UNL     1     -10.064   0.262   6.752  1.00  0.00     0.159 HD
ENDBRANCH  34  35
ENDBRANCH  33  34
ENDBRANCH  32  33
ENDBRANCH   6  32
ENDBRANCH   4   6
ENDBRANCH   1   2
BRANCH   1  43
ATOM     43  C   UNL     1     -14.248   2.854  10.729  1.00  0.00     0.102 C 
ATOM     44  C   UNL     1     -14.014   1.386  10.335  1.00  0.00     0.020 C 
BRANCH  43  45
ATOM     45  C   UNL     1     -15.655   3.367  10.406  1.00  0.00     0.225 C 
ATOM     46  O   UNL     1     -16.254   4.172  11.114  1.00  0.00    -0.275 OA
ATOM     47  N   UNL     1     -16.257   2.795   9.308  1.00  0.00    -0.342 N 
ATOM     48  H   UNL     1     -15.702   2.257   8.658  1.00  0.00     0.164 HD
BRANCH  47  49
ATOM     49  C   UNL     1     -17.588   3.214   8.859  1.00  0.00     0.192 C 
BRANCH  49  50
ATOM     50  C   UNL     1     -18.486   1.985   8.697  1.00  0.00     0.047 C 
BRANCH  50  51
ATOM     51  C   UNL     1     -18.129   0.868   9.687  1.00  0.00     0.103 C 
BRANCH  51  52
ATOM     52  C   UNL     1     -19.313   0.489  10.575  1.00  0.00     0.226 C 
ATOM     53  O   UNL     1     -20.447   0.869  10.275  1.00  0.00    -0.275 OA
BRANCH  52  54
ATOM     54  N   UNL     1     -19.034  -0.355  11.666  1.00  0.00    -0.311 N 
ATOM     55  C   UNL     1     -17.786  -0.215  12.429  1.00  0.00     0.153 C 
BRANCH  54  56
ATOM     56  C   UNL     1     -19.935  -1.355  12.068  1.00  0.00     0.102 C 
ATOM     57  C   UNL     1     -20.260  -2.434  11.339  1.00  0.00     0.043 C 
BRANCH  56  58
ATOM     58  C   UNL     1     -20.593  -1.303  13.426  1.00  0.00     0.268 C 
ATOM     59  O   UNL     1     -20.843  -0.257  14.010  1.00  0.00    -0.268 OA
ATOM     60  N   UNL     1     -20.940  -2.544  13.906  1.00  0.00    -0.339 N 
ATOM     61  H   UNL     1     -20.688  -3.363  13.366  1.00  0.00     0.164 HD
BRANCH  60  62
ATOM     62  C   UNL     1     -21.645  -2.720  15.175  1.00  0.00     0.168 CG0
ATOM     63  C   UNL     1     -21.607  -4.175  15.625  1.00  0.00     0.041 C 
ATOM     64  G   UNL     1     -23.100  -2.230  15.030  1.00  0.00     0.000 G0
ENDBRANCH  60  62
ENDBRANCH  56  58
ENDBRANCH  54  56
ENDBRANCH  52  54
ENDBRANCH  51  52
ENDBRANCH  50  51
ENDBRANCH  49  50
BRANCH  49  65
ATOM     65  C   UNL     1     -17.523   3.977   7.527  1.00  0.00     0.326 C 
ATOM     66  O   UNL     1     -17.224   3.493   6.445  1.00  0.00    -0.250 OA
BRANCH  65  67
ATOM     67  O   UNL     1     -17.771   5.302   7.623  1.00  0.00    -0.480 OA
ATOM     68  H   UNL     1     -18.693   5.341   7.956  1.00  0.00     0.296 HD
ENDBRANCH  65  67
ENDBRANCH  49  65
ENDBRANCH  47  49
ENDBRANCH  43  45
ENDBRANCH   1  43
BRANCH   1  69
ATOM     69  C   UNL     1     -13.565   4.887   9.178  1.00  0.00    -0.001 C 
ATOM     70  C   UNL     1     -12.754   5.637   8.411  1.00  0.00     0.001 C 
BRANCH  70  71
ATOM     71  C   UNL     1     -13.157   6.648   7.430  1.00  0.00    -0.055 C 
ATOM     72  C   UNL     1     -12.300   6.922   6.424  1.00  0.00    -0.018 C 
ATOM     73  C   UNL     1     -14.501   7.303   7.609  1.00  0.00     0.044 C 
BRANCH  72  74
ATOM     74  C   UNL     1     -12.449   7.908   5.274  1.00  0.00     0.038 C 
ATOM     75  C   UNL     1     -11.855   7.242   4.027  1.00  0.00     0.015 C 
BRANCH  74  76
ATOM     76  C   UNL     1     -11.778   9.254   5.679  1.00  0.00     0.128 C 
BRANCH  76  77
ATOM     77  O   UNL     1     -12.530   9.881   6.731  1.00  0.00    -0.381 OA
ATOM     78  C   UNL     1     -11.855   9.900   7.982  1.00  0.00     0.195 C 
ENDBRANCH  76  77
BRANCH  76  79
ATOM     79  C   UNL     1     -10.269   9.130   6.011  1.00  0.00     0.068 C 
BRANCH  79  80
ATOM     80  C   UNL     1      -9.277   9.619   4.984  1.00  0.00    -0.045 A 
ATOM     81  C   UNL     1      -8.548   8.717   4.198  1.00  0.00     0.004 A 
ATOM     82  C   UNL     1      -9.047  10.993   4.821  1.00  0.00     0.004 A 
ATOM     83  C   UNL     1      -7.621   9.177   3.260  1.00  0.00     0.000 A 
ATOM     84  C   UNL     1      -8.119  11.452   3.883  1.00  0.00     0.000 A 
ATOM     85  C   UNL     1      -7.408  10.544   3.102  1.00  0.00     0.000 A 
ENDBRANCH  79  80
ENDBRANCH  76  79
ENDBRANCH  74  76
ENDBRANCH  72  74
ENDBRANCH  70  71
ENDBRANCH   1  69
TORSDOF 17
ENDMDL
MODEL 42
REMARK VINA RESULT:    -6.618      3.552      8.414
REMARK INTER + INTRA:         -28.415
REMARK INTER:                 -21.410
REMARK INTRA:                  -7.006
REMARK UNBOUND:                -8.643
REMARK SMILES C=C1C(=O)N[C@H](C)C(=O)N[C@@H](CC(C)C)C(=O)N[C@@H](C(=O)O)[C@H](C)C(=O)N[C@@H](CCCN=C(N)N)C(=O)N[C@@H](/C=C/C(C)=C/[C@H](C)[C@H](Cc2ccccc2)OC)[C@H](C)C(=O)N[C@@H](C(=O)O)CCC(=O)N1C
REMARK SMILES IDX 39 1 38 2 37 3 36 4 28 6 27 7 25 8 26 9 23 11 24 12 19 13
REMARK SMILES IDX 18 14 16 15 17 16 11 18 10 19 8 20 9 21 12 24 13 25 14 26
REMARK SMILES IDX 15 27 20 28 21 29 22 30 29 32 30 33 31 34 32 35 33 36 34 37
REMARK SMILES IDX 35 38 57 43 58 44 59 45 60 46 61 47 62 49 66 50 67 51 68 52
REMARK SMILES IDX 69 53 70 54 71 55 2 56 1 57 3 58 4 59 5 60 6 62 7 63 63 65
REMARK SMILES IDX 64 66 65 67 40 69 41 70 42 71 44 72 43 73 45 74 46 75 47 76
REMARK SMILES IDX 55 77 56 78 48 79 49 80 50 81 54 82 51 83 53 84 52 85
REMARK H PARENT 38 5 27 10 18 17 10 22 22 31 34 39 34 40 35 41 35 42 61 48
REMARK H PARENT 5 61 65 68
REMARK Flexibility Score:  369.900
ROOT
ATOM      1  C   UNL     1     -14.705   5.854  10.799  1.00  0.00     0.117 C 
ENDROOT
BRANCH   1   2
ATOM      2  N   UNL     1     -13.764   4.943  10.147  1.00  0.00    -0.347 N 
ATOM      3  O   UNL     1     -11.925   5.417  11.436  1.00  0.00    -0.273 OA
ATOM      4  C   UNL     1     -12.469   4.730  10.578  1.00  0.00     0.243 C 
ATOM      5  H   UNL     1     -14.074   4.390   9.362  1.00  0.00     0.164 HD
BRANCH   4   6
ATOM      6  C   UNL     1     -11.710   3.651   9.764  1.00  0.00     0.171 C 
BRANCH   6   7
ATOM      7  N   UNL     1     -10.412   4.171   9.305  1.00  0.00    -0.344 N 
ATOM      8  C   UNL     1      -9.855   3.727   8.126  1.00  0.00     0.226 C 
ATOM      9  O   UNL     1     -10.388   2.877   7.422  1.00  0.00    -0.275 OA
ATOM     10  H   UNL     1      -9.910   4.824   9.893  1.00  0.00     0.164 HD
BRANCH   8  11
ATOM     11  C   UNL     1      -8.542   4.398   7.763  1.00  0.00     0.109 C 
ATOM     12  C   UNL     1      -8.304   5.610   8.664  1.00  0.00     0.021 C 
BRANCH  11  13
ATOM     13  C   UNL     1      -7.405   3.356   7.765  1.00  0.00     0.204 C 
BRANCH  13  14
ATOM     14  N   UNL     1      -7.402   2.541   6.546  1.00  0.00    -0.340 N 
ATOM     15  C   UNL     1      -7.621   3.070   5.292  1.00  0.00     0.243 C 
ATOM     16  O   UNL     1      -7.775   4.274   5.101  1.00  0.00    -0.273 OA
ATOM     17  H   UNL     1      -7.432   1.523   6.649  1.00  0.00     0.164 HD
BRANCH  15  18
ATOM     18  C   UNL     1      -7.778   1.996   4.188  1.00  0.00     0.171 C 
BRANCH  18  19
ATOM     19  N   UNL     1      -9.194   1.973   3.825  1.00  0.00    -0.343 N 
ATOM     20  C   UNL     1     -10.123   1.260   4.558  1.00  0.00     0.242 CG0
ATOM     21  O   UNL     1      -9.783   0.507   5.468  1.00  0.00    -0.273 OA
ATOM     22  H   UNL     1      -9.507   2.488   3.010  1.00  0.00     0.164 HD
ATOM     23  G   UNL     1     -11.577   1.419   4.070  1.00  0.00     0.000 G0
ENDBRANCH  18  19
BRANCH  18  24
ATOM     24  C   UNL     1      -6.894   2.328   2.980  1.00  0.00     0.038 C 
BRANCH  24  25
ATOM     25  C   UNL     1      -5.487   1.695   3.017  1.00  0.00    -0.015 C 
ATOM     26  C   UNL     1      -4.375   2.743   3.071  1.00  0.00     0.007 C 
ATOM     27  C   UNL     1      -5.293   0.800   1.790  1.00  0.00     0.007 C 
ENDBRANCH  24  25
ENDBRANCH  18  24
ENDBRANCH  15  18
ENDBRANCH  13  14
BRANCH  13  28
ATOM     28  C   UNL     1      -6.013   3.981   7.897  1.00  0.00     0.327 C 
ATOM     29  O   UNL     1      -5.688   5.103   7.539  1.00  0.00    -0.250 OA
BRANCH  28  30
ATOM     30  O   UNL     1      -5.088   3.118   8.362  1.00  0.00    -0.480 OA
ATOM     31  H   UNL     1      -5.383   2.245   8.028  1.00  0.00     0.296 HD
ENDBRANCH  28  30
ENDBRANCH  13  28
ENDBRANCH  11  13
ENDBRANCH   8  11
ENDBRANCH   6   7
BRANCH   6  32
ATOM     32  C   UNL     1     -11.523   2.403  10.634  1.00  0.00     0.037 C 
BRANCH  32  33
ATOM     33  C   UNL     1     -10.088   2.276  11.163  1.00  0.00     0.026 C 
BRANCH  33  34
ATOM     34  C   UNL     1      -9.362   1.055  10.597  1.00  0.00     0.146 C 
BRANCH  34  35
ATOM     35  N   UNL     1     -10.308   0.263   9.823  1.00  0.00    -0.254 NA
ATOM     36  C   UNL     1      -9.890  -0.342   8.774  1.00  0.00     0.185 C 
ATOM     37  N   UNL     1     -10.752  -1.079   8.057  1.00  0.00    -0.370 N 
ATOM     38  N   UNL     1      -8.653  -0.360   8.246  1.00  0.00    -0.370 N 
ATOM     39  H   UNL     1     -11.704  -1.124   8.398  1.00  0.00     0.159 HD
ATOM     40  H   UNL     1     -10.470  -1.716   7.332  1.00  0.00     0.159 HD
ATOM     41  H   UNL     1      -8.480  -0.760   7.338  1.00  0.00     0.159 HD
ATOM     42  H   UNL     1      -7.905   0.164   8.673  1.00  0.00     0.159 HD
ENDBRANCH  34  35
ENDBRANCH  33  34
ENDBRANCH  32  33
ENDBRANCH   6  32
ENDBRANCH   4   6
ENDBRANCH   1   2
BRANCH   1  43
ATOM     43  C   UNL     1     -15.818   5.009  11.484  1.00  0.00     0.102 C 
ATOM     44  C   UNL     1     -15.765   5.057  13.020  1.00  0.00     0.020 C 
BRANCH  43  45
ATOM     45  C   UNL     1     -15.865   3.591  10.908  1.00  0.00     0.225 C 
ATOM     46  O   UNL     1     -14.937   2.793  11.012  1.00  0.00    -0.275 OA
ATOM     47  N   UNL     1     -16.988   3.286  10.174  1.00  0.00    -0.342 N 
ATOM     48  H   UNL     1     -17.798   3.888  10.225  1.00  0.00     0.164 HD
BRANCH  47  49
ATOM     49  C   UNL     1     -17.186   1.955   9.592  1.00  0.00     0.192 C 
BRANCH  49  50
ATOM     50  C   UNL     1     -18.165   2.046   8.419  1.00  0.00     0.047 C 
BRANCH  50  51
ATOM     51  C   UNL     1     -17.450   2.279   7.081  1.00  0.00     0.103 C 
BRANCH  51  52
ATOM     52  C   UNL     1     -16.661   1.050   6.632  1.00  0.00     0.226 C 
ATOM     53  O   UNL     1     -17.233   0.152   6.011  1.00  0.00    -0.275 OA
BRANCH  52  54
ATOM     54  N   UNL     1     -15.280   1.061   6.898  1.00  0.00    -0.311 N 
ATOM     55  C   UNL     1     -14.648  -0.024   7.660  1.00  0.00     0.153 C 
BRANCH  54  56
ATOM     56  C   UNL     1     -14.454   2.103   6.443  1.00  0.00     0.102 C 
ATOM     57  C   UNL     1     -14.190   3.228   7.126  1.00  0.00     0.043 C 
BRANCH  56  58
ATOM     58  C   UNL     1     -13.741   2.002   5.115  1.00  0.00     0.268 C 
ATOM     59  O   UNL     1     -14.237   2.369   4.059  1.00  0.00    -0.268 OA
ATOM     60  N   UNL     1     -12.458   1.521   5.226  1.00  0.00    -0.339 N 
ATOM     61  H   UNL     1     -12.124   1.229   6.137  1.00  0.00     0.164 HD
BRANCH  60  62
ATOM     62  C   UNL     1     -11.568   1.401   4.072  1.00  0.00     0.168 CG0
ATOM     63  C   UNL     1     -11.949   0.204   3.210  1.00  0.00     0.041 C 
ATOM     64  G   UNL     1     -10.108   1.283   4.555  1.00  0.00     0.000 G0
ENDBRANCH  60  62
ENDBRANCH  56  58
ENDBRANCH  54  56
ENDBRANCH  52  54
ENDBRANCH  51  52
ENDBRANCH  50  51
ENDBRANCH  49  50
BRANCH  49  65
ATOM     65  C   UNL     1     -17.726   0.958  10.630  1.00  0.00     0.326 C 
ATOM     66  O   UNL     1     -18.892   0.863  10.984  1.00  0.00    -0.250 OA
BRANCH  65  67
ATOM     67  O   UNL     1     -16.784   0.182  11.209  1.00  0.00    -0.480 OA
ATOM     68  H   UNL     1     -16.053   0.177  10.555  1.00  0.00     0.296 HD
ENDBRANCH  65  67
ENDBRANCH  49  65
ENDBRANCH  47  49
ENDBRANCH  43  45
ENDBRANCH   1  43
BRANCH   1  69
ATOM     69  C   UNL     1     -15.101   6.877   9.750  1.00  0.00    -0.001 C 
ATOM     70  C   UNL     1     -16.341   7.161   9.314  1.00  0.00     0.001 C 
BRANCH  70  71
ATOM     71  C   UNL     1     -16.713   8.166   8.316  1.00  0.00    -0.055 C 
ATOM     72  C   UNL     1     -15.717   8.825   7.687  1.00  0.00    -0.018 C 
ATOM     73  C   UNL     1     -18.181   8.387   8.055  1.00  0.00     0.044 C 
BRANCH  72  74
ATOM     74  C   UNL     1     -15.802   9.905   6.618  1.00  0.00     0.038 C 
ATOM     75  C   UNL     1     -16.917   9.495   5.648  1.00  0.00     0.015 C 
BRANCH  74  76
ATOM     76  C   UNL     1     -14.398  10.074   5.965  1.00  0.00     0.128 C 
BRANCH  76  77
ATOM     77  O   UNL     1     -14.177  11.454   5.627  1.00  0.00    -0.381 OA
ATOM     78  C   UNL     1     -14.853  12.366   6.482  1.00  0.00     0.195 C 
ENDBRANCH  76  77
BRANCH  76  79
ATOM     79  C   UNL     1     -13.240   9.468   6.797  1.00  0.00     0.068 C 
BRANCH  79  80
ATOM     80  C   UNL     1     -12.525   8.262   6.238  1.00  0.00    -0.045 A 
ATOM     81  C   UNL     1     -12.588   7.021   6.886  1.00  0.00     0.004 A 
ATOM     82  C   UNL     1     -11.757   8.373   5.069  1.00  0.00     0.004 A 
ATOM     83  C   UNL     1     -11.911   5.913   6.370  1.00  0.00     0.000 A 
ATOM     84  C   UNL     1     -11.081   7.265   4.554  1.00  0.00     0.000 A 
ATOM     85  C   UNL     1     -11.159   6.035   5.204  1.00  0.00     0.000 A 
ENDBRANCH  79  80
ENDBRANCH  76  79
ENDBRANCH  74  76
ENDBRANCH  72  74
ENDBRANCH  70  71
ENDBRANCH   1  69
TORSDOF 17
ENDMDL
MODEL 43
REMARK VINA RESULT:    -6.603      2.936      7.659
REMARK INTER + INTRA:         -28.370
REMARK INTER:                 -19.816
REMARK INTRA:                  -8.554
REMARK UNBOUND:                -8.643
REMARK SMILES C=C1C(=O)N[C@H](C)C(=O)N[C@@H](CC(C)C)C(=O)N[C@@H](C(=O)O)[C@H](C)C(=O)N[C@@H](CCCN=C(N)N)C(=O)N[C@@H](/C=C/C(C)=C/[C@H](C)[C@H](Cc2ccccc2)OC)[C@H](C)C(=O)N[C@@H](C(=O)O)CCC(=O)N1C
REMARK SMILES IDX 39 1 38 2 37 3 36 4 28 6 27 7 25 8 26 9 23 11 24 12 19 13
REMARK SMILES IDX 18 14 16 15 17 16 11 18 10 19 8 20 9 21 12 24 13 25 14 26
REMARK SMILES IDX 15 27 20 28 21 29 22 30 29 32 30 33 31 34 32 35 33 36 34 37
REMARK SMILES IDX 35 38 57 43 58 44 59 45 60 46 61 47 62 49 66 50 67 51 68 52
REMARK SMILES IDX 69 53 70 54 71 55 2 56 1 57 3 58 4 59 5 60 6 62 7 63 63 65
REMARK SMILES IDX 64 66 65 67 40 69 41 70 42 71 44 72 43 73 45 74 46 75 47 76
REMARK SMILES IDX 55 77 56 78 48 79 49 80 50 81 54 82 51 83 53 84 52 85
REMARK H PARENT 38 5 27 10 18 17 10 22 22 31 34 39 34 40 35 41 35 42 61 48
REMARK H PARENT 5 61 65 68
REMARK Flexibility Score:  369.900
ROOT
ATOM      1  C   UNL     1     -10.899   3.837   9.945  1.00  0.00     0.117 C 
ENDROOT
BRANCH   1   2
ATOM      2  N   UNL     1     -10.179   2.793   9.216  1.00  0.00    -0.347 N 
ATOM      3  O   UNL     1      -8.494   4.104   8.374  1.00  0.00    -0.273 OA
ATOM      4  C   UNL     1      -8.979   2.994   8.562  1.00  0.00     0.243 C 
ATOM      5  H   UNL     1     -10.538   1.850   9.220  1.00  0.00     0.164 HD
BRANCH   4   6
ATOM      6  C   UNL     1      -8.383   1.704   7.942  1.00  0.00     0.171 C 
BRANCH   6   7
ATOM      7  N   UNL     1      -7.290   2.036   7.015  1.00  0.00    -0.344 N 
ATOM      8  C   UNL     1      -7.464   1.922   5.653  1.00  0.00     0.226 C 
ATOM      9  O   UNL     1      -8.509   1.525   5.152  1.00  0.00    -0.275 OA
ATOM     10  H   UNL     1      -6.390   2.304   7.394  1.00  0.00     0.164 HD
BRANCH   8  11
ATOM     11  C   UNL     1      -6.262   2.354   4.831  1.00  0.00     0.109 C 
ATOM     12  C   UNL     1      -6.125   1.465   3.594  1.00  0.00     0.021 C 
BRANCH  11  13
ATOM     13  C   UNL     1      -6.347   3.865   4.537  1.00  0.00     0.204 C 
BRANCH  13  14
ATOM     14  N   UNL     1      -7.732   4.343   4.502  1.00  0.00    -0.340 N 
ATOM     15  C   UNL     1      -8.430   4.529   3.328  1.00  0.00     0.243 C 
ATOM     16  O   UNL     1      -7.958   4.249   2.228  1.00  0.00    -0.273 OA
ATOM     17  H   UNL     1      -8.127   4.736   5.361  1.00  0.00     0.164 HD
BRANCH  15  18
ATOM     18  C   UNL     1      -9.794   5.235   3.524  1.00  0.00     0.171 C 
BRANCH  18  19
ATOM     19  N   UNL     1      -9.839   6.334   2.562  1.00  0.00    -0.343 N 
ATOM     20  C   UNL     1      -9.441   7.614   2.898  1.00  0.00     0.242 CG0
ATOM     21  O   UNL     1      -9.157   7.916   4.054  1.00  0.00    -0.273 OA
ATOM     22  H   UNL     1     -10.177   6.159   1.622  1.00  0.00     0.164 HD
ATOM     23  G   UNL     1      -9.485   8.621   1.731  1.00  0.00     0.000 G0
ENDBRANCH  18  19
BRANCH  18  24
ATOM     24  C   UNL     1     -10.950   4.250   3.307  1.00  0.00     0.038 C 
BRANCH  24  25
ATOM     25  C   UNL     1     -11.830   4.006   4.551  1.00  0.00    -0.015 C 
ATOM     26  C   UNL     1     -11.011   3.612   5.780  1.00  0.00     0.007 C 
ATOM     27  C   UNL     1     -12.859   2.914   4.246  1.00  0.00     0.007 C 
ENDBRANCH  24  25
ENDBRANCH  18  24
ENDBRANCH  15  18
ENDBRANCH  13  14
BRANCH  13  28
ATOM     28  C   UNL     1      -5.597   4.722   5.562  1.00  0.00     0.327 C 
ATOM     29  O   UNL     1      -5.779   4.728   6.770  1.00  0.00    -0.250 OA
BRANCH  28  30
ATOM     30  O   UNL     1      -4.749   5.603   4.994  1.00  0.00    -0.480 OA
ATOM     31  H   UNL     1      -3.862   5.212   5.141  1.00  0.00     0.296 HD
ENDBRANCH  28  30
ENDBRANCH  13  28
ENDBRANCH  11  13
ENDBRANCH   8  11
ENDBRANCH   6   7
BRANCH   6  32
ATOM     32  C   UNL     1      -7.889   0.788   9.067  1.00  0.00     0.037 C 
BRANCH  32  33
ATOM     33  C   UNL     1      -8.492  -0.621   8.974  1.00  0.00     0.026 C 
BRANCH  33  34
ATOM     34  C   UNL     1      -9.961  -0.601   8.549  1.00  0.00     0.146 C 
BRANCH  34  35
ATOM     35  N   UNL     1     -10.791  -0.881   9.713  1.00  0.00    -0.254 NA
ATOM     36  C   UNL     1     -11.960  -1.372   9.530  1.00  0.00     0.185 C 
ATOM     37  N   UNL     1     -12.731  -1.639  10.596  1.00  0.00    -0.370 N 
ATOM     38  N   UNL     1     -12.575  -1.681   8.375  1.00  0.00    -0.370 N 
ATOM     39  H   UNL     1     -12.333  -1.442  11.505  1.00  0.00     0.159 HD
ATOM     40  H   UNL     1     -13.578  -2.178  10.548  1.00  0.00     0.159 HD
ATOM     41  H   UNL     1     -13.550  -1.931   8.355  1.00  0.00     0.159 HD
ATOM     42  H   UNL     1     -12.119  -1.518   7.491  1.00  0.00     0.159 HD
ENDBRANCH  34  35
ENDBRANCH  33  34
ENDBRANCH  32  33
ENDBRANCH   6  32
ENDBRANCH   4   6
ENDBRANCH   1   2
BRANCH   1  43
ATOM     43  C   UNL     1     -11.333   3.267  11.327  1.00  0.00     0.102 C 
ATOM     44  C   UNL     1     -10.545   2.015  11.747  1.00  0.00     0.020 C 
BRANCH  43  45
ATOM     45  C   UNL     1     -12.854   3.098  11.398  1.00  0.00     0.225 C 
ATOM     46  O   UNL     1     -13.579   3.828  12.067  1.00  0.00    -0.275 OA
ATOM     47  N   UNL     1     -13.360   2.005  10.733  1.00  0.00    -0.342 N 
ATOM     48  H   UNL     1     -12.779   1.509  10.071  1.00  0.00     0.164 HD
BRANCH  47  49
ATOM     49  C   UNL     1     -14.800   1.736  10.685  1.00  0.00     0.192 C 
BRANCH  49  50
ATOM     50  C   UNL     1     -15.219   0.951  11.931  1.00  0.00     0.047 C 
BRANCH  50  51
ATOM     51  C   UNL     1     -16.469   1.541  12.598  1.00  0.00     0.103 C 
BRANCH  51  52
ATOM     52  C   UNL     1     -16.337   1.595  14.118  1.00  0.00     0.226 C 
ATOM     53  O   UNL     1     -15.389   2.196  14.628  1.00  0.00    -0.275 OA
BRANCH  52  54
ATOM     54  N   UNL     1     -17.375   1.000  14.859  1.00  0.00    -0.311 N 
ATOM     55  C   UNL     1     -18.161   1.783  15.822  1.00  0.00     0.153 C 
BRANCH  54  56
ATOM     56  C   UNL     1     -17.703  -0.357  14.702  1.00  0.00     0.102 C 
ATOM     57  C   UNL     1     -16.926  -1.384  15.082  1.00  0.00     0.043 C 
BRANCH  56  58
ATOM     58  C   UNL     1     -19.030  -0.770  14.110  1.00  0.00     0.268 C 
ATOM     59  O   UNL     1     -19.463  -0.319  13.058  1.00  0.00    -0.268 OA
ATOM     60  N   UNL     1     -19.665  -1.749  14.837  1.00  0.00    -0.339 N 
ATOM     61  H   UNL     1     -19.244  -2.062  15.704  1.00  0.00     0.164 HD
BRANCH  60  62
ATOM     62  C   UNL     1     -20.933  -2.338  14.409  1.00  0.00     0.168 CG0
ATOM     63  C   UNL     1     -22.104  -1.728  15.169  1.00  0.00     0.041 C 
ATOM     64  G   UNL     1     -20.887  -3.867  14.612  1.00  0.00     0.000 G0
ENDBRANCH  60  62
ENDBRANCH  56  58
ENDBRANCH  54  56
ENDBRANCH  52  54
ENDBRANCH  51  52
ENDBRANCH  50  51
ENDBRANCH  49  50
BRANCH  49  65
ATOM     65  C   UNL     1     -15.187   0.940   9.429  1.00  0.00     0.326 C 
ATOM     66  O   UNL     1     -15.233  -0.278   9.345  1.00  0.00    -0.250 OA
BRANCH  65  67
ATOM     67  O   UNL     1     -15.435   1.697   8.336  1.00  0.00    -0.480 OA
ATOM     68  H   UNL     1     -15.865   2.499   8.703  1.00  0.00     0.296 HD
ENDBRANCH  65  67
ENDBRANCH  49  65
ENDBRANCH  47  49
ENDBRANCH  43  45
ENDBRANCH   1  43
BRANCH   1  69
ATOM     69  C   UNL     1     -11.965   4.357   8.999  1.00  0.00    -0.001 C 
ATOM     70  C   UNL     1     -12.304   5.639   8.774  1.00  0.00     0.001 C 
BRANCH  70  71
ATOM     71  C   UNL     1     -13.321   6.130   7.842  1.00  0.00    -0.055 C 
ATOM     72  C   UNL     1     -13.442   7.466   7.692  1.00  0.00    -0.018 C 
ATOM     73  C   UNL     1     -14.153   5.110   7.110  1.00  0.00     0.044 C 
BRANCH  72  74
ATOM     74  C   UNL     1     -14.395   8.253   6.804  1.00  0.00     0.038 C 
ATOM     75  C   UNL     1     -13.536   9.117   5.872  1.00  0.00     0.015 C 
BRANCH  74  76
ATOM     76  C   UNL     1     -15.380   9.050   7.709  1.00  0.00     0.128 C 
BRANCH  76  77
ATOM     77  O   UNL     1     -15.566  10.375   7.184  1.00  0.00    -0.381 OA
ATOM     78  C   UNL     1     -16.764  10.531   6.436  1.00  0.00     0.195 C 
ENDBRANCH  76  77
BRANCH  76  79
ATOM     79  C   UNL     1     -16.720   8.318   7.977  1.00  0.00     0.068 C 
BRANCH  79  80
ATOM     80  C   UNL     1     -16.678   7.036   8.772  1.00  0.00    -0.045 A 
ATOM     81  C   UNL     1     -16.030   6.976  10.013  1.00  0.00     0.004 A 
ATOM     82  C   UNL     1     -17.268   5.869   8.263  1.00  0.00     0.004 A 
ATOM     83  C   UNL     1     -15.984   5.782  10.735  1.00  0.00     0.000 A 
ATOM     84  C   UNL     1     -17.220   4.675   8.986  1.00  0.00     0.000 A 
ATOM     85  C   UNL     1     -16.580   4.632  10.222  1.00  0.00     0.000 A 
ENDBRANCH  79  80
ENDBRANCH  76  79
ENDBRANCH  74  76
ENDBRANCH  72  74
ENDBRANCH  70  71
ENDBRANCH   1  69
TORSDOF 17
ENDMDL
MODEL 44
REMARK VINA RESULT:    -6.599      3.113     11.130
REMARK INTER + INTRA:         -28.358
REMARK INTER:                 -21.890
REMARK INTRA:                  -6.468
REMARK UNBOUND:                -8.643
REMARK SMILES C=C1C(=O)N[C@H](C)C(=O)N[C@@H](CC(C)C)C(=O)N[C@@H](C(=O)O)[C@H](C)C(=O)N[C@@H](CCCN=C(N)N)C(=O)N[C@@H](/C=C/C(C)=C/[C@H](C)[C@H](Cc2ccccc2)OC)[C@H](C)C(=O)N[C@@H](C(=O)O)CCC(=O)N1C
REMARK SMILES IDX 39 1 38 2 37 3 36 4 28 6 27 7 25 8 26 9 23 11 24 12 19 13
REMARK SMILES IDX 18 14 16 15 17 16 11 18 10 19 8 20 9 21 12 24 13 25 14 26
REMARK SMILES IDX 15 27 20 28 21 29 22 30 29 32 30 33 31 34 32 35 33 36 34 37
REMARK SMILES IDX 35 38 57 43 58 44 59 45 60 46 61 47 62 49 66 50 67 51 68 52
REMARK SMILES IDX 69 53 70 54 71 55 2 56 1 57 3 58 4 59 5 60 6 62 7 63 63 65
REMARK SMILES IDX 64 66 65 67 40 69 41 70 42 71 44 72 43 73 45 74 46 75 47 76
REMARK SMILES IDX 55 77 56 78 48 79 49 80 50 81 54 82 51 83 53 84 52 85
REMARK H PARENT 38 5 27 10 18 17 10 22 22 31 34 39 34 40 35 41 35 42 61 48
REMARK H PARENT 5 61 65 68
REMARK Flexibility Score:  369.900
ROOT
ATOM      1  C   UNL     1     -10.657   7.124   5.356  1.00  0.00     0.117 C 
ENDROOT
BRANCH   1   2
ATOM      2  N   UNL     1     -11.926   7.066   6.082  1.00  0.00    -0.347 N 
ATOM      3  O   UNL     1     -11.600   8.895   7.430  1.00  0.00    -0.273 OA
ATOM      4  C   UNL     1     -12.336   8.013   7.000  1.00  0.00     0.243 C 
ATOM      5  H   UNL     1     -12.579   6.324   5.879  1.00  0.00     0.164 HD
BRANCH   4   6
ATOM      6  C   UNL     1     -13.759   7.763   7.561  1.00  0.00     0.171 C 
BRANCH   6   7
ATOM      7  N   UNL     1     -13.686   7.078   8.861  1.00  0.00    -0.344 N 
ATOM      8  C   UNL     1     -14.820   6.559   9.447  1.00  0.00     0.226 C 
ATOM      9  O   UNL     1     -15.931   6.659   8.939  1.00  0.00    -0.275 OA
ATOM     10  H   UNL     1     -12.797   7.034   9.344  1.00  0.00     0.164 HD
BRANCH   8  11
ATOM     11  C   UNL     1     -14.572   5.835  10.759  1.00  0.00     0.109 C 
ATOM     12  C   UNL     1     -15.596   6.275  11.805  1.00  0.00     0.021 C 
BRANCH  11  13
ATOM     13  C   UNL     1     -14.510   4.315  10.511  1.00  0.00     0.204 C 
BRANCH  13  14
ATOM     14  N   UNL     1     -15.426   3.891   9.448  1.00  0.00    -0.340 N 
ATOM     15  C   UNL     1     -16.081   2.678   9.463  1.00  0.00     0.243 C 
ATOM     16  O   UNL     1     -15.989   1.890  10.402  1.00  0.00    -0.273 OA
ATOM     17  H   UNL     1     -15.430   4.426   8.575  1.00  0.00     0.164 HD
BRANCH  15  18
ATOM     18  C   UNL     1     -16.827   2.361   8.144  1.00  0.00     0.171 C 
BRANCH  18  19
ATOM     19  N   UNL     1     -18.243   2.625   8.390  1.00  0.00    -0.343 N 
ATOM     20  C   UNL     1     -19.122   1.618   8.741  1.00  0.00     0.242 CG0
ATOM     21  O   UNL     1     -18.784   0.437   8.732  1.00  0.00    -0.273 OA
ATOM     22  H   UNL     1     -18.597   3.571   8.297  1.00  0.00     0.164 HD
ATOM     23  G   UNL     1     -20.557   2.100   9.037  1.00  0.00     0.000 G0
ENDBRANCH  18  19
BRANCH  18  24
ATOM     24  C   UNL     1     -16.286   3.222   6.996  1.00  0.00     0.038 C 
BRANCH  24  25
ATOM     25  C   UNL     1     -16.532   2.645   5.586  1.00  0.00    -0.015 C 
ATOM     26  C   UNL     1     -17.854   3.118   4.982  1.00  0.00     0.007 C 
ATOM     27  C   UNL     1     -16.511   1.115   5.646  1.00  0.00     0.007 C 
ENDBRANCH  24  25
ENDBRANCH  18  24
ENDBRANCH  15  18
ENDBRANCH  13  14
BRANCH  13  28
ATOM     28  C   UNL     1     -13.111   3.822  10.128  1.00  0.00     0.327 C 
ATOM     29  O   UNL     1     -12.535   4.033   9.072  1.00  0.00    -0.250 OA
BRANCH  28  30
ATOM     30  O   UNL     1     -12.571   2.996  11.047  1.00  0.00    -0.480 OA
ATOM     31  H   UNL     1     -12.536   3.535  11.864  1.00  0.00     0.296 HD
ENDBRANCH  28  30
ENDBRANCH  13  28
ENDBRANCH  11  13
ENDBRANCH   8  11
ENDBRANCH   6   7
BRANCH   6  32
ATOM     32  C   UNL     1     -14.492   9.103   7.689  1.00  0.00     0.037 C 
BRANCH  32  33
ATOM     33  C   UNL     1     -14.520   9.877   6.364  1.00  0.00     0.026 C 
BRANCH  33  34
ATOM     34  C   UNL     1     -15.775  10.738   6.215  1.00  0.00     0.146 C 
BRANCH  34  35
ATOM     35  N   UNL     1     -16.880   9.888   5.793  1.00  0.00    -0.254 NA
ATOM     36  C   UNL     1     -17.955   9.887   6.490  1.00  0.00     0.185 C 
ATOM     37  N   UNL     1     -18.982   9.111   6.107  1.00  0.00    -0.370 N 
ATOM     38  N   UNL     1     -18.239  10.580   7.607  1.00  0.00    -0.370 N 
ATOM     39  H   UNL     1     -18.849   8.565   5.266  1.00  0.00     0.159 HD
ATOM     40  H   UNL     1     -19.908   9.184   6.492  1.00  0.00     0.159 HD
ATOM     41  H   UNL     1     -19.070  10.388   8.142  1.00  0.00     0.159 HD
ATOM     42  H   UNL     1     -17.552  11.192   8.018  1.00  0.00     0.159 HD
ENDBRANCH  34  35
ENDBRANCH  33  34
ENDBRANCH  32  33
ENDBRANCH   6  32
ENDBRANCH   4   6
ENDBRANCH   1   2
BRANCH   1  43
ATOM     43  C   UNL     1     -10.949   6.966   3.836  1.00  0.00     0.102 C 
ATOM     44  C   UNL     1     -11.284   5.523   3.423  1.00  0.00     0.020 C 
BRANCH  43  45
ATOM     45  C   UNL     1      -9.844   7.612   2.994  1.00  0.00     0.225 C 
ATOM     46  O   UNL     1      -9.601   7.280   1.837  1.00  0.00    -0.275 OA
ATOM     47  N   UNL     1      -9.064   8.537   3.649  1.00  0.00    -0.342 N 
ATOM     48  H   UNL     1      -9.368   8.907   4.539  1.00  0.00     0.164 HD
BRANCH  47  49
ATOM     49  C   UNL     1      -7.993   9.262   2.959  1.00  0.00     0.192 C 
BRANCH  49  50
ATOM     50  C   UNL     1      -6.666   8.522   3.150  1.00  0.00     0.047 C 
BRANCH  50  51
ATOM     51  C   UNL     1      -6.850   7.168   3.849  1.00  0.00     0.103 C 
BRANCH  51  52
ATOM     52  C   UNL     1      -5.558   6.678   4.500  1.00  0.00     0.226 C 
ATOM     53  O   UNL     1      -5.606   6.073   5.572  1.00  0.00    -0.275 OA
BRANCH  52  54
ATOM     54  N   UNL     1      -4.371   6.891   3.774  1.00  0.00    -0.311 N 
ATOM     55  C   UNL     1      -3.460   7.990   4.120  1.00  0.00     0.153 C 
BRANCH  54  56
ATOM     56  C   UNL     1      -4.011   6.061   2.699  1.00  0.00     0.102 C 
ATOM     57  C   UNL     1      -3.992   4.719   2.738  1.00  0.00     0.043 C 
BRANCH  56  58
ATOM     58  C   UNL     1      -3.648   6.648   1.355  1.00  0.00     0.268 C 
ATOM     59  O   UNL     1      -3.981   7.771   1.003  1.00  0.00    -0.268 OA
ATOM     60  N   UNL     1      -2.855   5.817   0.600  1.00  0.00    -0.339 N 
ATOM     61  H   UNL     1      -2.632   4.897   0.959  1.00  0.00     0.164 HD
BRANCH  60  62
ATOM     62  C   UNL     1      -2.337   6.213  -0.709  1.00  0.00     0.168 CG0
ATOM     63  C   UNL     1      -1.875   4.999  -1.505  1.00  0.00     0.041 C 
ATOM     64  G   UNL     1      -1.180   7.217  -0.525  1.00  0.00     0.000 G0
ENDBRANCH  60  62
ENDBRANCH  56  58
ENDBRANCH  54  56
ENDBRANCH  52  54
ENDBRANCH  51  52
ENDBRANCH  50  51
ENDBRANCH  49  50
BRANCH  49  65
ATOM     65  C   UNL     1      -7.853  10.700   3.483  1.00  0.00     0.326 C 
ATOM     66  O   UNL     1      -7.363  11.636   2.868  1.00  0.00    -0.250 OA
BRANCH  65  67
ATOM     67  O   UNL     1      -8.271  10.880   4.755  1.00  0.00    -0.480 OA
ATOM     68  H   UNL     1      -7.526  10.535   5.294  1.00  0.00     0.296 HD
ENDBRANCH  65  67
ENDBRANCH  49  65
ENDBRANCH  47  49
ENDBRANCH  43  45
ENDBRANCH   1  43
BRANCH   1  69
ATOM     69  C   UNL     1      -9.735   6.126   6.033  1.00  0.00    -0.001 C 
ATOM     70  C   UNL     1      -9.930   5.501   7.207  1.00  0.00     0.001 C 
BRANCH  70  71
ATOM     71  C   UNL     1      -9.043   4.523   7.841  1.00  0.00    -0.055 C 
ATOM     72  C   UNL     1      -8.090   3.951   7.075  1.00  0.00    -0.018 C 
ATOM     73  C   UNL     1      -9.250   4.231   9.304  1.00  0.00     0.044 C 
BRANCH  72  74
ATOM     74  C   UNL     1      -7.039   2.919   7.456  1.00  0.00     0.038 C 
ATOM     75  C   UNL     1      -5.820   3.687   7.982  1.00  0.00     0.015 C 
BRANCH  74  76
ATOM     76  C   UNL     1      -6.757   2.011   6.223  1.00  0.00     0.128 C 
BRANCH  76  77
ATOM     77  O   UNL     1      -7.940   1.271   5.877  1.00  0.00    -0.381 OA
ATOM     78  C   UNL     1      -8.006  -0.014   6.481  1.00  0.00     0.195 C 
ENDBRANCH  76  77
BRANCH  76  79
ATOM     79  C   UNL     1      -6.146   2.764   5.014  1.00  0.00     0.068 C 
BRANCH  79  80
ATOM     80  C   UNL     1      -6.919   2.764   3.717  1.00  0.00    -0.045 A 
ATOM     81  C   UNL     1      -6.602   1.869   2.688  1.00  0.00     0.004 A 
ATOM     82  C   UNL     1      -7.956   3.687   3.512  1.00  0.00     0.004 A 
ATOM     83  C   UNL     1      -7.313   1.885   1.486  1.00  0.00     0.000 A 
ATOM     84  C   UNL     1      -8.666   3.703   2.309  1.00  0.00     0.000 A 
ATOM     85  C   UNL     1      -8.345   2.801   1.298  1.00  0.00     0.000 A 
ENDBRANCH  79  80
ENDBRANCH  76  79
ENDBRANCH  74  76
ENDBRANCH  72  74
ENDBRANCH  70  71
ENDBRANCH   1  69
TORSDOF 17
ENDMDL
MODEL 45
REMARK VINA RESULT:    -6.592      2.986     12.140
REMARK INTER + INTRA:         -28.336
REMARK INTER:                 -23.524
REMARK INTRA:                  -4.812
REMARK UNBOUND:                -8.643
REMARK SMILES C=C1C(=O)N[C@H](C)C(=O)N[C@@H](CC(C)C)C(=O)N[C@@H](C(=O)O)[C@H](C)C(=O)N[C@@H](CCCN=C(N)N)C(=O)N[C@@H](/C=C/C(C)=C/[C@H](C)[C@H](Cc2ccccc2)OC)[C@H](C)C(=O)N[C@@H](C(=O)O)CCC(=O)N1C
REMARK SMILES IDX 39 1 38 2 37 3 36 4 28 6 27 7 25 8 26 9 23 11 24 12 19 13
REMARK SMILES IDX 18 14 16 15 17 16 11 18 10 19 8 20 9 21 12 24 13 25 14 26
REMARK SMILES IDX 15 27 20 28 21 29 22 30 29 32 30 33 31 34 32 35 33 36 34 37
REMARK SMILES IDX 35 38 57 43 58 44 59 45 60 46 61 47 62 49 66 50 67 51 68 52
REMARK SMILES IDX 69 53 70 54 71 55 2 56 1 57 3 58 4 59 5 60 6 62 7 63 63 65
REMARK SMILES IDX 64 66 65 67 40 69 41 70 42 71 44 72 43 73 45 74 46 75 47 76
REMARK SMILES IDX 55 77 56 78 48 79 49 80 50 81 54 82 51 83 53 84 52 85
REMARK H PARENT 38 5 27 10 18 17 10 22 22 31 34 39 34 40 35 41 35 42 61 48
REMARK H PARENT 5 61 65 68
REMARK Flexibility Score:  369.900
ROOT
ATOM      1  C   UNL     1     -11.895   5.560   8.044  1.00  0.00     0.117 C 
ENDROOT
BRANCH   1   2
ATOM      2  N   UNL     1     -13.270   5.079   7.902  1.00  0.00    -0.347 N 
ATOM      3  O   UNL     1     -13.952   5.442  10.064  1.00  0.00    -0.273 OA
ATOM      4  C   UNL     1     -14.219   5.144   8.904  1.00  0.00     0.243 C 
ATOM      5  H   UNL     1     -13.579   4.719   7.012  1.00  0.00     0.164 HD
BRANCH   4   6
ATOM      6  C   UNL     1     -15.620   4.647   8.468  1.00  0.00     0.171 C 
BRANCH   6   7
ATOM      7  N   UNL     1     -15.838   3.263   8.918  1.00  0.00    -0.344 N 
ATOM      8  C   UNL     1     -16.438   2.340   8.088  1.00  0.00     0.226 C 
ATOM      9  O   UNL     1     -16.834   2.623   6.964  1.00  0.00    -0.275 OA
ATOM     10  H   UNL     1     -15.586   3.009   9.865  1.00  0.00     0.164 HD
BRANCH   8  11
ATOM     11  C   UNL     1     -16.542   0.944   8.676  1.00  0.00     0.109 C 
ATOM     12  C   UNL     1     -15.735  -0.043   7.833  1.00  0.00     0.021 C 
BRANCH  11  13
ATOM     13  C   UNL     1     -16.165   0.979  10.171  1.00  0.00     0.204 C 
BRANCH  13  14
ATOM     14  N   UNL     1     -17.033   0.116  10.978  1.00  0.00    -0.340 N 
ATOM     15  C   UNL     1     -17.573   0.514  12.182  1.00  0.00     0.243 C 
ATOM     16  O   UNL     1     -17.413   1.646  12.636  1.00  0.00    -0.273 OA
ATOM     17  H   UNL     1     -17.082  -0.877  10.737  1.00  0.00     0.164 HD
BRANCH  15  18
ATOM     18  C   UNL     1     -18.280  -0.629  12.952  1.00  0.00     0.171 C 
BRANCH  18  19
ATOM     19  N   UNL     1     -18.499  -0.144  14.313  1.00  0.00    -0.343 N 
ATOM     20  C   UNL     1     -17.637  -0.457  15.346  1.00  0.00     0.242 CG0
ATOM     21  O   UNL     1     -16.722  -1.264  15.198  1.00  0.00    -0.273 OA
ATOM     22  H   UNL     1     -19.308   0.434  14.511  1.00  0.00     0.164 HD
ATOM     23  G   UNL     1     -17.987   0.209  16.692  1.00  0.00     0.000 G0
ENDBRANCH  18  19
BRANCH  18  24
ATOM     24  C   UNL     1     -19.601  -1.004  12.269  1.00  0.00     0.038 C 
BRANCH  24  25
ATOM     25  C   UNL     1     -20.065  -2.455  12.517  1.00  0.00    -0.015 C 
ATOM     26  C   UNL     1     -18.987  -3.308  13.186  1.00  0.00     0.007 C 
ATOM     27  C   UNL     1     -20.480  -3.096  11.191  1.00  0.00     0.007 C 
ENDBRANCH  24  25
ENDBRANCH  18  24
ENDBRANCH  15  18
ENDBRANCH  13  14
BRANCH  13  28
ATOM     28  C   UNL     1     -14.720   0.547  10.439  1.00  0.00     0.327 C 
ATOM     29  O   UNL     1     -13.713   1.168  10.137  1.00  0.00    -0.250 OA
BRANCH  28  30
ATOM     30  O   UNL     1     -14.627  -0.691  10.964  1.00  0.00    -0.480 OA
ATOM     31  H   UNL     1     -15.201  -1.240  10.391  1.00  0.00     0.296 HD
ENDBRANCH  28  30
ENDBRANCH  13  28
ENDBRANCH  11  13
ENDBRANCH   8  11
ENDBRANCH   6   7
BRANCH   6  32
ATOM     32  C   UNL     1     -16.688   5.584   9.043  1.00  0.00     0.037 C 
BRANCH  32  33
ATOM     33  C   UNL     1     -16.396   7.058   8.729  1.00  0.00     0.026 C 
BRANCH  33  34
ATOM     34  C   UNL     1     -17.663   7.848   8.399  1.00  0.00     0.146 C 
BRANCH  34  35
ATOM     35  N   UNL     1     -17.283   9.093   7.745  1.00  0.00    -0.254 NA
ATOM     36  C   UNL     1     -17.942   9.471   6.714  1.00  0.00     0.185 C 
ATOM     37  N   UNL     1     -17.604  10.619   6.107  1.00  0.00    -0.370 N 
ATOM     38  N   UNL     1     -18.980   8.868   6.107  1.00  0.00    -0.370 N 
ATOM     39  H   UNL     1     -16.836  11.138   6.512  1.00  0.00     0.159 HD
ATOM     40  H   UNL     1     -18.173  11.067   5.409  1.00  0.00     0.159 HD
ATOM     41  H   UNL     1     -19.325   9.194   5.219  1.00  0.00     0.159 HD
ATOM     42  H   UNL     1     -19.331   7.987   6.447  1.00  0.00     0.159 HD
ENDBRANCH  34  35
ENDBRANCH  33  34
ENDBRANCH  32  33
ENDBRANCH   6  32
ENDBRANCH   4   6
ENDBRANCH   1   2
BRANCH   1  43
ATOM     43  C   UNL     1     -11.456   6.209   6.699  1.00  0.00     0.102 C 
ATOM     44  C   UNL     1      -9.930   6.273   6.520  1.00  0.00     0.020 C 
BRANCH  43  45
ATOM     45  C   UNL     1     -12.165   7.548   6.478  1.00  0.00     0.225 C 
ATOM     46  O   UNL     1     -13.382   7.686   6.565  1.00  0.00    -0.275 OA
ATOM     47  N   UNL     1     -11.357   8.587   6.078  1.00  0.00    -0.342 N 
ATOM     48  H   UNL     1     -10.353   8.500   6.159  1.00  0.00     0.164 HD
BRANCH  47  49
ATOM     49  C   UNL     1     -11.891   9.935   5.864  1.00  0.00     0.192 C 
BRANCH  49  50
ATOM     50  C   UNL     1     -10.789  10.845   5.316  1.00  0.00     0.047 C 
BRANCH  50  51
ATOM     51  C   UNL     1      -9.987  10.175   4.191  1.00  0.00     0.103 C 
BRANCH  51  52
ATOM     52  C   UNL     1      -8.507  10.550   4.240  1.00  0.00     0.226 C 
ATOM     53  O   UNL     1      -8.115  11.380   5.062  1.00  0.00    -0.275 OA
BRANCH  52  54
ATOM     54  N   UNL     1      -7.654   9.849   3.367  1.00  0.00    -0.311 N 
ATOM     55  C   UNL     1      -7.621   8.381   3.361  1.00  0.00     0.153 C 
BRANCH  54  56
ATOM     56  C   UNL     1      -6.810  10.524   2.470  1.00  0.00     0.102 C 
ATOM     57  C   UNL     1      -7.032  11.756   1.984  1.00  0.00     0.043 C 
BRANCH  56  58
ATOM     58  C   UNL     1      -5.515   9.899   2.005  1.00  0.00     0.268 C 
ATOM     59  O   UNL     1      -5.330   9.516   0.858  1.00  0.00    -0.268 OA
ATOM     60  N   UNL     1      -4.549   9.866   2.983  1.00  0.00    -0.339 N 
ATOM     61  H   UNL     1      -4.786  10.194   3.912  1.00  0.00     0.164 HD
BRANCH  60  62
ATOM     62  C   UNL     1      -3.201   9.360   2.730  1.00  0.00     0.168 CG0
ATOM     63  C   UNL     1      -3.130   7.855   2.959  1.00  0.00     0.041 C 
ATOM     64  G   UNL     1      -2.193  10.098   3.634  1.00  0.00     0.000 G0
ENDBRANCH  60  62
ENDBRANCH  56  58
ENDBRANCH  54  56
ENDBRANCH  52  54
ENDBRANCH  51  52
ENDBRANCH  50  51
ENDBRANCH  49  50
BRANCH  49  65
ATOM     65  C   UNL     1     -12.448  10.537   7.163  1.00  0.00     0.326 C 
ATOM     66  O   UNL     1     -13.318  11.393   7.234  1.00  0.00    -0.250 OA
BRANCH  65  67
ATOM     67  O   UNL     1     -11.855  10.090   8.292  1.00  0.00    -0.480 OA
ATOM     68  H   UNL     1     -10.983  10.540   8.289  1.00  0.00     0.296 HD
ENDBRANCH  65  67
ENDBRANCH  49  65
ENDBRANCH  47  49
ENDBRANCH  43  45
ENDBRANCH   1  43
BRANCH   1  69
ATOM     69  C   UNL     1     -11.092   4.394   8.591  1.00  0.00    -0.001 C 
ATOM     70  C   UNL     1     -11.155   3.106   8.208  1.00  0.00     0.001 C 
BRANCH  70  71
ATOM     71  C   UNL     1     -10.360   1.993   8.729  1.00  0.00    -0.055 C 
ATOM     72  C   UNL     1      -9.899   1.083   7.845  1.00  0.00    -0.018 C 
ATOM     73  C   UNL     1     -10.105   1.946  10.213  1.00  0.00     0.044 C 
BRANCH  72  74
ATOM     74  C   UNL     1      -9.056  -0.159   8.094  1.00  0.00     0.038 C 
ATOM     75  C   UNL     1      -7.852  -0.086   7.147  1.00  0.00     0.015 C 
BRANCH  74  76
ATOM     76  C   UNL     1      -9.953  -1.419   7.912  1.00  0.00     0.128 C 
BRANCH  76  77
ATOM     77  O   UNL     1     -10.062  -2.128   9.158  1.00  0.00    -0.381 OA
ATOM     78  C   UNL     1     -11.164  -1.715   9.955  1.00  0.00     0.195 C 
ENDBRANCH  76  77
BRANCH  76  79
ATOM     79  C   UNL     1     -11.332  -1.122   7.269  1.00  0.00     0.068 C 
BRANCH  79  80
ATOM     80  C   UNL     1     -11.526  -1.481   5.816  1.00  0.00    -0.045 A 
ATOM     81  C   UNL     1     -11.480  -2.815   5.390  1.00  0.00     0.004 A 
ATOM     82  C   UNL     1     -11.728  -0.475   4.859  1.00  0.00     0.004 A 
ATOM     83  C   UNL     1     -11.647  -3.139   4.042  1.00  0.00     0.000 A 
ATOM     84  C   UNL     1     -11.894  -0.800   3.511  1.00  0.00     0.000 A 
ATOM     85  C   UNL     1     -11.855  -2.131   3.103  1.00  0.00     0.000 A 
ENDBRANCH  79  80
ENDBRANCH  76  79
ENDBRANCH  74  76
ENDBRANCH  72  74
ENDBRANCH  70  71
ENDBRANCH   1  69
TORSDOF 17
ENDMDL
MODEL 46
REMARK VINA RESULT:    -6.561      3.160      6.777
REMARK INTER + INTRA:         -28.246
REMARK INTER:                 -20.493
REMARK INTRA:                  -7.753
REMARK UNBOUND:                -8.643
REMARK SMILES C=C1C(=O)N[C@H](C)C(=O)N[C@@H](CC(C)C)C(=O)N[C@@H](C(=O)O)[C@H](C)C(=O)N[C@@H](CCCN=C(N)N)C(=O)N[C@@H](/C=C/C(C)=C/[C@H](C)[C@H](Cc2ccccc2)OC)[C@H](C)C(=O)N[C@@H](C(=O)O)CCC(=O)N1C
REMARK SMILES IDX 39 1 38 2 37 3 36 4 28 6 27 7 25 8 26 9 23 11 24 12 19 13
REMARK SMILES IDX 18 14 16 15 17 16 11 18 10 19 8 20 9 21 12 24 13 25 14 26
REMARK SMILES IDX 15 27 20 28 21 29 22 30 29 32 30 33 31 34 32 35 33 36 34 37
REMARK SMILES IDX 35 38 57 43 58 44 59 45 60 46 61 47 62 49 66 50 67 51 68 52
REMARK SMILES IDX 69 53 70 54 71 55 2 56 1 57 3 58 4 59 5 60 6 62 7 63 63 65
REMARK SMILES IDX 64 66 65 67 40 69 41 70 42 71 44 72 43 73 45 74 46 75 47 76
REMARK SMILES IDX 55 77 56 78 48 79 49 80 50 81 54 82 51 83 53 84 52 85
REMARK H PARENT 38 5 27 10 18 17 10 22 22 31 34 39 34 40 35 41 35 42 61 48
REMARK H PARENT 5 61 65 68
REMARK Flexibility Score:  369.900
ROOT
ATOM      1  C   UNL     1     -11.466   3.751   4.141  1.00  0.00     0.117 C 
ENDROOT
BRANCH   1   2
ATOM      2  N   UNL     1     -11.478   4.907   5.038  1.00  0.00    -0.347 N 
ATOM      3  O   UNL     1     -11.774   6.535   3.446  1.00  0.00    -0.273 OA
ATOM      4  C   UNL     1     -11.723   6.203   4.626  1.00  0.00     0.243 C 
ATOM      5  H   UNL     1     -11.351   4.766   6.028  1.00  0.00     0.164 HD
BRANCH   4   6
ATOM      6  C   UNL     1     -11.766   7.229   5.787  1.00  0.00     0.171 C 
BRANCH   6   7
ATOM      7  N   UNL     1     -12.496   6.674   6.937  1.00  0.00    -0.344 N 
ATOM      8  C   UNL     1     -13.278   7.484   7.731  1.00  0.00     0.226 C 
ATOM      9  O   UNL     1     -13.387   8.690   7.538  1.00  0.00    -0.275 OA
ATOM     10  H   UNL     1     -12.377   5.695   7.168  1.00  0.00     0.164 HD
BRANCH   8  11
ATOM     11  C   UNL     1     -14.009   6.753   8.843  1.00  0.00     0.109 C 
ATOM     12  C   UNL     1     -13.897   7.538  10.150  1.00  0.00     0.021 C 
BRANCH  11  13
ATOM     13  C   UNL     1     -15.451   6.437   8.399  1.00  0.00     0.204 C 
BRANCH  13  14
ATOM     14  N   UNL     1     -15.979   5.237   9.055  1.00  0.00    -0.340 N 
ATOM     15  C   UNL     1     -16.138   4.034   8.400  1.00  0.00     0.243 C 
ATOM     16  O   UNL     1     -15.790   3.867   7.233  1.00  0.00    -0.273 OA
ATOM     17  H   UNL     1     -16.425   5.346   9.970  1.00  0.00     0.164 HD
BRANCH  15  18
ATOM     18  C   UNL     1     -16.903   2.974   9.230  1.00  0.00     0.171 C 
BRANCH  18  19
ATOM     19  N   UNL     1     -16.677   3.301  10.637  1.00  0.00    -0.343 N 
ATOM     20  C   UNL     1     -16.563   2.320  11.603  1.00  0.00     0.242 CG0
ATOM     21  O   UNL     1     -16.778   1.138  11.349  1.00  0.00    -0.273 OA
ATOM     22  H   UNL     1     -16.607   4.273  10.917  1.00  0.00     0.164 HD
ATOM     23  G   UNL     1     -16.247   2.853  13.016  1.00  0.00     0.000 G0
ENDBRANCH  18  19
BRANCH  18  24
ATOM     24  C   UNL     1     -18.397   2.989   8.883  1.00  0.00     0.038 C 
BRANCH  24  25
ATOM     25  C   UNL     1     -18.991   1.608   8.533  1.00  0.00    -0.015 C 
ATOM     26  C   UNL     1     -19.766   0.992   9.698  1.00  0.00     0.007 C 
ATOM     27  C   UNL     1     -17.869   0.660   8.102  1.00  0.00     0.007 C 
ENDBRANCH  24  25
ENDBRANCH  18  24
ENDBRANCH  15  18
ENDBRANCH  13  14
BRANCH  13  28
ATOM     28  C   UNL     1     -16.434   7.577   8.681  1.00  0.00     0.327 C 
ATOM     29  O   UNL     1     -17.472   7.496   9.320  1.00  0.00    -0.250 OA
BRANCH  28  30
ATOM     30  O   UNL     1     -16.113   8.721   8.043  1.00  0.00    -0.480 OA
ATOM     31  H   UNL     1     -16.973   9.076   7.736  1.00  0.00     0.296 HD
ENDBRANCH  28  30
ENDBRANCH  13  28
ENDBRANCH  11  13
ENDBRANCH   8  11
ENDBRANCH   6   7
BRANCH   6  32
ATOM     32  C   UNL     1     -10.332   7.605   6.178  1.00  0.00     0.037 C 
BRANCH  32  33
ATOM     33  C   UNL     1     -10.111   9.124   6.173  1.00  0.00     0.026 C 
BRANCH  33  34
ATOM     34  C   UNL     1     -10.968   9.837   5.127  1.00  0.00     0.146 C 
BRANCH  34  35
ATOM     35  N   UNL     1     -11.665  10.945   5.766  1.00  0.00    -0.254 NA
ATOM     36  C   UNL     1     -12.940  11.012   5.659  1.00  0.00     0.185 C 
ATOM     37  N   UNL     1     -13.593  12.026   6.249  1.00  0.00    -0.370 N 
ATOM     38  N   UNL     1     -13.779  10.182   5.014  1.00  0.00    -0.370 N 
ATOM     39  H   UNL     1     -13.030  12.689   6.765  1.00  0.00     0.159 HD
ATOM     40  H   UNL     1     -14.592  12.054   6.359  1.00  0.00     0.159 HD
ATOM     41  H   UNL     1     -14.749  10.419   4.884  1.00  0.00     0.159 HD
ATOM     42  H   UNL     1     -13.424   9.384   4.511  1.00  0.00     0.159 HD
ENDBRANCH  34  35
ENDBRANCH  33  34
ENDBRANCH  32  33
ENDBRANCH   6  32
ENDBRANCH   4   6
ENDBRANCH   1   2
BRANCH   1  43
ATOM     43  C   UNL     1     -12.107   2.543   4.882  1.00  0.00     0.102 C 
ATOM     44  C   UNL     1     -13.437   2.081   4.263  1.00  0.00     0.020 C 
BRANCH  43  45
ATOM     45  C   UNL     1     -12.180   2.799   6.390  1.00  0.00     0.225 C 
ATOM     46  O   UNL     1     -13.012   3.541   6.906  1.00  0.00    -0.275 OA
ATOM     47  N   UNL     1     -11.186   2.212   7.140  1.00  0.00    -0.342 N 
ATOM     48  H   UNL     1     -10.609   1.492   6.729  1.00  0.00     0.164 HD
BRANCH  47  49
ATOM     49  C   UNL     1     -11.149   2.341   8.599  1.00  0.00     0.192 C 
BRANCH  49  50
ATOM     50  C   UNL     1     -10.484   3.666   8.983  1.00  0.00     0.047 C 
BRANCH  50  51
ATOM     51  C   UNL     1     -11.426   4.581   9.777  1.00  0.00     0.103 C 
BRANCH  51  52
ATOM     52  C   UNL     1     -12.345   3.792  10.707  1.00  0.00     0.226 C 
ATOM     53  O   UNL     1     -13.313   3.189  10.240  1.00  0.00    -0.275 OA
BRANCH  52  54
ATOM     54  N   UNL     1     -11.971   3.742  12.063  1.00  0.00    -0.311 N 
ATOM     55  C   UNL     1     -10.741   3.059  12.484  1.00  0.00     0.153 C 
BRANCH  54  56
ATOM     56  C   UNL     1     -12.754   4.346  13.060  1.00  0.00     0.102 C 
ATOM     57  C   UNL     1     -12.268   4.998  14.129  1.00  0.00     0.043 C 
BRANCH  56  58
ATOM     58  C   UNL     1     -14.262   4.342  12.971  1.00  0.00     0.268 C 
ATOM     59  O   UNL     1     -14.921   5.340  12.712  1.00  0.00    -0.268 OA
ATOM     60  N   UNL     1     -14.810   3.093  13.144  1.00  0.00    -0.339 N 
ATOM     61  H   UNL     1     -14.196   2.318  13.365  1.00  0.00     0.164 HD
BRANCH  60  62
ATOM     62  C   UNL     1     -16.248   2.852  13.035  1.00  0.00     0.168 CG0
ATOM     63  C   UNL     1     -16.719   1.865  14.096  1.00  0.00     0.041 C 
ATOM     64  G   UNL     1     -16.579   2.332  11.620  1.00  0.00     0.000 G0
ENDBRANCH  60  62
ENDBRANCH  56  58
ENDBRANCH  54  56
ENDBRANCH  52  54
ENDBRANCH  51  52
ENDBRANCH  50  51
ENDBRANCH  49  50
BRANCH  49  65
ATOM     65  C   UNL     1     -10.384   1.180   9.252  1.00  0.00     0.326 C 
ATOM     66  O   UNL     1      -9.168   1.096   9.349  1.00  0.00    -0.250 OA
BRANCH  65  67
ATOM     67  O   UNL     1     -11.163   0.166   9.689  1.00  0.00    -0.480 OA
ATOM     68  H   UNL     1     -10.563  -0.354  10.267  1.00  0.00     0.296 HD
ENDBRANCH  65  67
ENDBRANCH  49  65
ENDBRANCH  47  49
ENDBRANCH  43  45
ENDBRANCH   1  43
BRANCH   1  69
ATOM     69  C   UNL     1     -10.042   3.626   3.630  1.00  0.00    -0.001 C 
ATOM     70  C   UNL     1      -9.598   2.840   2.633  1.00  0.00     0.001 C 
BRANCH  70  71
ATOM     71  C   UNL     1      -8.225   2.744   2.134  1.00  0.00    -0.055 C 
ATOM     72  C   UNL     1      -7.227   3.109   2.967  1.00  0.00    -0.018 C 
ATOM     73  C   UNL     1      -8.022   2.238   0.730  1.00  0.00     0.044 C 
BRANCH  72  74
ATOM     74  C   UNL     1      -5.725   3.111   2.727  1.00  0.00     0.038 C 
ATOM     75  C   UNL     1      -5.195   1.738   3.158  1.00  0.00     0.015 C 
BRANCH  74  76
ATOM     76  C   UNL     1      -5.098   4.320   3.483  1.00  0.00     0.128 C 
BRANCH  76  77
ATOM     77  O   UNL     1      -6.045   5.399   3.553  1.00  0.00    -0.381 OA
ATOM     78  C   UNL     1      -5.454   6.686   3.432  1.00  0.00     0.195 C 
ENDBRANCH  76  77
BRANCH  76  79
ATOM     79  C   UNL     1      -4.502   3.956   4.866  1.00  0.00     0.068 C 
BRANCH  79  80
ATOM     80  C   UNL     1      -5.383   4.116   6.081  1.00  0.00    -0.045 A 
ATOM     81  C   UNL     1      -5.253   5.227   6.926  1.00  0.00     0.004 A 
ATOM     82  C   UNL     1      -6.334   3.135   6.400  1.00  0.00     0.004 A 
ATOM     83  C   UNL     1      -6.062   5.361   8.056  1.00  0.00     0.000 A 
ATOM     84  C   UNL     1      -7.143   3.270   7.530  1.00  0.00     0.000 A 
ATOM     85  C   UNL     1      -7.008   4.383   8.357  1.00  0.00     0.000 A 
ENDBRANCH  79  80
ENDBRANCH  76  79
ENDBRANCH  74  76
ENDBRANCH  72  74
ENDBRANCH  70  71
ENDBRANCH   1  69
TORSDOF 17
ENDMDL
MODEL 47
REMARK VINA RESULT:    -6.514      3.133      7.614
REMARK INTER + INTRA:         -28.105
REMARK INTER:                 -20.494
REMARK INTRA:                  -7.611
REMARK UNBOUND:                -8.643
REMARK SMILES C=C1C(=O)N[C@H](C)C(=O)N[C@@H](CC(C)C)C(=O)N[C@@H](C(=O)O)[C@H](C)C(=O)N[C@@H](CCCN=C(N)N)C(=O)N[C@@H](/C=C/C(C)=C/[C@H](C)[C@H](Cc2ccccc2)OC)[C@H](C)C(=O)N[C@@H](C(=O)O)CCC(=O)N1C
REMARK SMILES IDX 39 1 38 2 37 3 36 4 28 6 27 7 25 8 26 9 23 11 24 12 19 13
REMARK SMILES IDX 18 14 16 15 17 16 11 18 10 19 8 20 9 21 12 24 13 25 14 26
REMARK SMILES IDX 15 27 20 28 21 29 22 30 29 32 30 33 31 34 32 35 33 36 34 37
REMARK SMILES IDX 35 38 57 43 58 44 59 45 60 46 61 47 62 49 66 50 67 51 68 52
REMARK SMILES IDX 69 53 70 54 71 55 2 56 1 57 3 58 4 59 5 60 6 62 7 63 63 65
REMARK SMILES IDX 64 66 65 67 40 69 41 70 42 71 44 72 43 73 45 74 46 75 47 76
REMARK SMILES IDX 55 77 56 78 48 79 49 80 50 81 54 82 51 83 53 84 52 85
REMARK H PARENT 38 5 27 10 18 17 10 22 22 31 34 39 34 40 35 41 35 42 61 48
REMARK H PARENT 5 61 65 68
REMARK Flexibility Score:  369.900
ROOT
ATOM      1  C   UNL     1     -12.575   1.281   9.544  1.00  0.00     0.117 C 
ENDROOT
BRANCH   1   2
ATOM      2  N   UNL     1     -11.957   2.085   8.489  1.00  0.00    -0.347 N 
ATOM      3  O   UNL     1      -9.954   0.967   8.378  1.00  0.00    -0.273 OA
ATOM      4  C   UNL     1     -10.727   1.806   7.925  1.00  0.00     0.243 C 
ATOM      5  H   UNL     1     -12.463   2.866   8.102  1.00  0.00     0.164 HD
BRANCH   4   6
ATOM      6  C   UNL     1     -10.340   2.762   6.768  1.00  0.00     0.171 C 
BRANCH   6   7
ATOM      7  N   UNL     1     -10.900   4.103   7.001  1.00  0.00    -0.344 N 
ATOM      8  C   UNL     1     -11.762   4.672   6.089  1.00  0.00     0.226 C 
ATOM      9  O   UNL     1     -12.084   4.114   5.047  1.00  0.00    -0.275 OA
ATOM     10  H   UNL     1     -10.604   4.623   7.817  1.00  0.00     0.164 HD
BRANCH   8  11
ATOM     11  C   UNL     1     -12.294   6.035   6.498  1.00  0.00     0.109 C 
ATOM     12  C   UNL     1     -12.919   5.958   7.891  1.00  0.00     0.021 C 
BRANCH  11  13
ATOM     13  C   UNL     1     -11.187   7.096   6.340  1.00  0.00     0.204 C 
BRANCH  13  14
ATOM     14  N   UNL     1     -10.502   6.991   5.049  1.00  0.00    -0.340 N 
ATOM     15  C   UNL     1      -9.206   6.538   4.924  1.00  0.00     0.243 C 
ATOM     16  O   UNL     1      -8.553   6.131   5.883  1.00  0.00    -0.273 OA
ATOM     17  H   UNL     1     -10.928   7.450   4.240  1.00  0.00     0.164 HD
BRANCH  15  18
ATOM     18  C   UNL     1      -8.625   6.710   3.499  1.00  0.00     0.171 C 
BRANCH  18  19
ATOM     19  N   UNL     1      -7.526   7.667   3.608  1.00  0.00    -0.343 N 
ATOM     20  C   UNL     1      -7.750   9.021   3.768  1.00  0.00     0.242 CG0
ATOM     21  O   UNL     1      -8.880   9.499   3.693  1.00  0.00    -0.273 OA
ATOM     22  H   UNL     1      -6.569   7.333   3.560  1.00  0.00     0.164 HD
ATOM     23  G   UNL     1      -6.470   9.862   3.945  1.00  0.00     0.000 G0
ENDBRANCH  18  19
BRANCH  18  24
ATOM     24  C   UNL     1      -8.146   5.364   2.943  1.00  0.00     0.038 C 
BRANCH  24  25
ATOM     25  C   UNL     1      -9.245   4.518   2.267  1.00  0.00    -0.015 C 
ATOM     26  C   UNL     1      -8.688   3.260   1.599  1.00  0.00     0.007 C 
ATOM     27  C   UNL     1      -9.984   5.367   1.229  1.00  0.00     0.007 C 
ENDBRANCH  24  25
ENDBRANCH  18  24
ENDBRANCH  15  18
ENDBRANCH  13  14
BRANCH  13  28
ATOM     28  C   UNL     1     -11.706   8.532   6.463  1.00  0.00     0.327 C 
ATOM     29  O   UNL     1     -12.697   8.992   5.917  1.00  0.00    -0.250 OA
BRANCH  28  30
ATOM     30  O   UNL     1     -10.883   9.333   7.170  1.00  0.00    -0.480 OA
ATOM     31  H   UNL     1     -10.858  10.167   6.656  1.00  0.00     0.296 HD
ENDBRANCH  28  30
ENDBRANCH  13  28
ENDBRANCH  11  13
ENDBRANCH   8  11
ENDBRANCH   6   7
BRANCH   6  32
ATOM     32  C   UNL     1      -8.813   2.818   6.651  1.00  0.00     0.037 C 
BRANCH  32  33
ATOM     33  C   UNL     1      -8.322   2.373   5.266  1.00  0.00     0.026 C 
BRANCH  33  34
ATOM     34  C   UNL     1      -6.848   1.966   5.271  1.00  0.00     0.146 C 
BRANCH  34  35
ATOM     35  N   UNL     1      -6.207   2.508   4.082  1.00  0.00    -0.254 NA
ATOM     36  C   UNL     1      -5.264   3.364   4.227  1.00  0.00     0.185 C 
ATOM     37  N   UNL     1      -4.663   3.866   3.138  1.00  0.00    -0.370 N 
ATOM     38  N   UNL     1      -4.750   3.869   5.363  1.00  0.00    -0.370 N 
ATOM     39  H   UNL     1      -4.989   3.526   2.242  1.00  0.00     0.159 HD
ATOM     40  H   UNL     1      -3.812   4.401   3.169  1.00  0.00     0.159 HD
ATOM     41  H   UNL     1      -4.104   4.641   5.344  1.00  0.00     0.159 HD
ATOM     42  H   UNL     1      -5.117   3.592   6.260  1.00  0.00     0.159 HD
ENDBRANCH  34  35
ENDBRANCH  33  34
ENDBRANCH  32  33
ENDBRANCH   6  32
ENDBRANCH   4   6
ENDBRANCH   1   2
BRANCH   1  43
ATOM     43  C   UNL     1     -13.700   0.413   8.909  1.00  0.00     0.102 C 
ATOM     44  C   UNL     1     -13.183  -0.890   8.276  1.00  0.00     0.020 C 
BRANCH  43  45
ATOM     45  C   UNL     1     -14.581   1.250   7.977  1.00  0.00     0.225 C 
ATOM     46  O   UNL     1     -14.248   2.351   7.549  1.00  0.00    -0.275 OA
ATOM     47  N   UNL     1     -15.829   0.731   7.717  1.00  0.00    -0.342 N 
ATOM     48  H   UNL     1     -16.028  -0.233   7.948  1.00  0.00     0.164 HD
BRANCH  47  49
ATOM     49  C   UNL     1     -16.766   1.405   6.814  1.00  0.00     0.192 C 
BRANCH  49  50
ATOM     50  C   UNL     1     -18.198   1.204   7.315  1.00  0.00     0.047 C 
BRANCH  50  51
ATOM     51  C   UNL     1     -18.436   1.866   8.679  1.00  0.00     0.103 C 
BRANCH  51  52
ATOM     52  C   UNL     1     -19.614   1.240   9.423  1.00  0.00     0.226 C 
ATOM     53  O   UNL     1     -20.766   1.543   9.106  1.00  0.00    -0.275 OA
BRANCH  52  54
ATOM     54  N   UNL     1     -19.299   0.275  10.397  1.00  0.00    -0.311 N 
ATOM     55  C   UNL     1     -18.114   0.423  11.252  1.00  0.00     0.153 C 
BRANCH  54  56
ATOM     56  C   UNL     1     -20.105  -0.859  10.593  1.00  0.00     0.102 C 
ATOM     57  C   UNL     1     -20.300  -1.829   9.685  1.00  0.00     0.043 C 
BRANCH  56  58
ATOM     58  C   UNL     1     -20.801  -1.096  11.912  1.00  0.00     0.268 C 
ATOM     59  O   UNL     1     -20.858  -0.256  12.800  1.00  0.00    -0.268 OA
ATOM     60  N   UNL     1     -21.418  -2.322  11.984  1.00  0.00    -0.339 N 
ATOM     61  H   UNL     1     -21.315  -2.966  11.209  1.00  0.00     0.164 HD
BRANCH  60  62
ATOM     62  C   UNL     1     -22.203  -2.732  13.148  1.00  0.00     0.168 CG0
ATOM     63  C   UNL     1     -23.676  -2.883  12.790  1.00  0.00     0.041 C 
ATOM     64  G   UNL     1     -22.019  -1.704  14.283  1.00  0.00     0.000 G0
ENDBRANCH  60  62
ENDBRANCH  56  58
ENDBRANCH  54  56
ENDBRANCH  52  54
ENDBRANCH  51  52
ENDBRANCH  50  51
ENDBRANCH  49  50
BRANCH  49  65
ATOM     65  C   UNL     1     -16.650   0.873   5.377  1.00  0.00     0.326 C 
ATOM     66  O   UNL     1     -17.580   0.725   4.596  1.00  0.00    -0.250 OA
BRANCH  65  67
ATOM     67  O   UNL     1     -15.404   0.499   5.012  1.00  0.00    -0.480 OA
ATOM     68  H   UNL     1     -15.516  -0.432   4.724  1.00  0.00     0.296 HD
ENDBRANCH  65  67
ENDBRANCH  49  65
ENDBRANCH  47  49
ENDBRANCH  43  45
ENDBRANCH   1  43
BRANCH   1  69
ATOM     69  C   UNL     1     -12.935   2.247  10.658  1.00  0.00    -0.001 C 
ATOM     70  C   UNL     1     -12.171   3.230  11.165  1.00  0.00     0.001 C 
BRANCH  70  71
ATOM     71  C   UNL     1     -12.537   4.170  12.226  1.00  0.00    -0.055 C 
ATOM     72  C   UNL     1     -13.086   3.665  13.351  1.00  0.00    -0.018 C 
ATOM     73  C   UNL     1     -12.268   5.634  11.991  1.00  0.00     0.044 C 
BRANCH  72  74
ATOM     74  C   UNL     1     -13.556   4.391  14.603  1.00  0.00     0.038 C 
ATOM     75  C   UNL     1     -12.694   3.889  15.768  1.00  0.00     0.015 C 
BRANCH  74  76
ATOM     76  C   UNL     1     -15.086   4.155  14.774  1.00  0.00     0.128 C 
BRANCH  76  77
ATOM     77  O   UNL     1     -15.422   4.106  16.171  1.00  0.00    -0.381 OA
ATOM     78  C   UNL     1     -16.234   5.189  16.602  1.00  0.00     0.195 C 
ENDBRANCH  76  77
BRANCH  76  79
ATOM     79  C   UNL     1     -15.969   5.151  13.980  1.00  0.00     0.068 C 
BRANCH  79  80
ATOM     80  C   UNL     1     -15.981   5.041  12.475  1.00  0.00    -0.045 A 
ATOM     81  C   UNL     1     -15.678   6.145  11.667  1.00  0.00     0.004 A 
ATOM     82  C   UNL     1     -16.325   3.828  11.857  1.00  0.00     0.004 A 
ATOM     83  C   UNL     1     -15.706   6.038  10.275  1.00  0.00     0.000 A 
ATOM     84  C   UNL     1     -16.353   3.723  10.465  1.00  0.00     0.000 A 
ATOM     85  C   UNL     1     -16.042   4.827   9.675  1.00  0.00     0.000 A 
ENDBRANCH  79  80
ENDBRANCH  76  79
ENDBRANCH  74  76
ENDBRANCH  72  74
ENDBRANCH  70  71
ENDBRANCH   1  69
TORSDOF 17
ENDMDL
MODEL 48
REMARK VINA RESULT:    -6.514      3.380      7.550
REMARK INTER + INTRA:         -28.103
REMARK INTER:                 -19.598
REMARK INTRA:                  -8.505
REMARK UNBOUND:                -8.643
REMARK SMILES C=C1C(=O)N[C@H](C)C(=O)N[C@@H](CC(C)C)C(=O)N[C@@H](C(=O)O)[C@H](C)C(=O)N[C@@H](CCCN=C(N)N)C(=O)N[C@@H](/C=C/C(C)=C/[C@H](C)[C@H](Cc2ccccc2)OC)[C@H](C)C(=O)N[C@@H](C(=O)O)CCC(=O)N1C
REMARK SMILES IDX 39 1 38 2 37 3 36 4 28 6 27 7 25 8 26 9 23 11 24 12 19 13
REMARK SMILES IDX 18 14 16 15 17 16 11 18 10 19 8 20 9 21 12 24 13 25 14 26
REMARK SMILES IDX 15 27 20 28 21 29 22 30 29 32 30 33 31 34 32 35 33 36 34 37
REMARK SMILES IDX 35 38 57 43 58 44 59 45 60 46 61 47 62 49 66 50 67 51 68 52
REMARK SMILES IDX 69 53 70 54 71 55 2 56 1 57 3 58 4 59 5 60 6 62 7 63 63 65
REMARK SMILES IDX 64 66 65 67 40 69 41 70 42 71 44 72 43 73 45 74 46 75 47 76
REMARK SMILES IDX 55 77 56 78 48 79 49 80 50 81 54 82 51 83 53 84 52 85
REMARK H PARENT 38 5 27 10 18 17 10 22 22 31 34 39 34 40 35 41 35 42 61 48
REMARK H PARENT 5 61 65 68
REMARK Flexibility Score:  369.900
ROOT
ATOM      1  C   UNL     1     -12.380   2.668   4.237  1.00  0.00     0.117 C 
ENDROOT
BRANCH   1   2
ATOM      2  N   UNL     1     -12.963   2.685   5.579  1.00  0.00    -0.347 N 
ATOM      3  O   UNL     1     -15.174   2.672   4.959  1.00  0.00    -0.273 OA
ATOM      4  C   UNL     1     -14.318   2.593   5.834  1.00  0.00     0.243 C 
ATOM      5  H   UNL     1     -12.354   2.715   6.382  1.00  0.00     0.164 HD
BRANCH   4   6
ATOM      6  C   UNL     1     -14.665   2.545   7.344  1.00  0.00     0.171 C 
BRANCH   6   7
ATOM      7  N   UNL     1     -15.306   3.802   7.764  1.00  0.00    -0.344 N 
ATOM      8  C   UNL     1     -14.550   4.924   8.024  1.00  0.00     0.226 C 
ATOM      9  O   UNL     1     -13.327   4.929   7.944  1.00  0.00    -0.275 OA
ATOM     10  H   UNL     1     -16.308   3.818   7.906  1.00  0.00     0.164 HD
BRANCH   8  11
ATOM     11  C   UNL     1     -15.361   6.153   8.393  1.00  0.00     0.109 C 
ATOM     12  C   UNL     1     -16.842   5.914   8.098  1.00  0.00     0.021 C 
BRANCH  11  13
ATOM     13  C   UNL     1     -15.048   6.569   9.844  1.00  0.00     0.204 C 
BRANCH  13  14
ATOM     14  N   UNL     1     -14.779   5.412  10.704  1.00  0.00    -0.340 N 
ATOM     15  C   UNL     1     -15.249   5.315  11.996  1.00  0.00     0.243 C 
ATOM     16  O   UNL     1     -15.979   6.167  12.499  1.00  0.00    -0.273 OA
ATOM     17  H   UNL     1     -14.061   4.747  10.404  1.00  0.00     0.164 HD
BRANCH  15  18
ATOM     18  C   UNL     1     -14.669   4.110  12.776  1.00  0.00     0.171 C 
BRANCH  18  19
ATOM     19  N   UNL     1     -13.374   3.805  12.172  1.00  0.00    -0.343 N 
ATOM     20  C   UNL     1     -13.232   2.831  11.202  1.00  0.00     0.242 CG0
ATOM     21  O   UNL     1     -14.162   2.087  10.897  1.00  0.00    -0.273 OA
ATOM     22  H   UNL     1     -12.552   4.315  12.475  1.00  0.00     0.164 HD
ATOM     23  G   UNL     1     -11.806   2.707  10.628  1.00  0.00     0.000 G0
ENDBRANCH  18  19
BRANCH  18  24
ATOM     24  C   UNL     1     -14.530   4.445  14.266  1.00  0.00     0.038 C 
BRANCH  24  25
ATOM     25  C   UNL     1     -15.695   3.949  15.149  1.00  0.00    -0.015 C 
ATOM     26  C   UNL     1     -16.355   5.081  15.937  1.00  0.00     0.007 C 
ATOM     27  C   UNL     1     -15.186   2.877  16.116  1.00  0.00     0.007 C 
ENDBRANCH  24  25
ENDBRANCH  18  24
ENDBRANCH  15  18
ENDBRANCH  13  14
BRANCH  13  28
ATOM     28  C   UNL     1     -13.842   7.507   9.956  1.00  0.00     0.327 C 
ATOM     29  O   UNL     1     -13.355   7.939  10.990  1.00  0.00    -0.250 OA
BRANCH  28  30
ATOM     30  O   UNL     1     -13.395   7.939   8.759  1.00  0.00    -0.480 OA
ATOM     31  H   UNL     1     -12.654   8.540   8.981  1.00  0.00     0.296 HD
ENDBRANCH  28  30
ENDBRANCH  13  28
ENDBRANCH  11  13
ENDBRANCH   8  11
ENDBRANCH   6   7
BRANCH   6  32
ATOM     32  C   UNL     1     -15.583   1.347   7.612  1.00  0.00     0.037 C 
BRANCH  32  33
ATOM     33  C   UNL     1     -17.018   1.779   7.943  1.00  0.00     0.026 C 
BRANCH  33  34
ATOM     34  C   UNL     1     -17.855   0.636   8.519  1.00  0.00     0.146 C 
BRANCH  34  35
ATOM     35  N   UNL     1     -17.543   0.492   9.934  1.00  0.00    -0.254 NA
ATOM     36  C   UNL     1     -18.505   0.502  10.780  1.00  0.00     0.185 C 
ATOM     37  N   UNL     1     -18.229   0.365  12.086  1.00  0.00    -0.370 N 
ATOM     38  N   UNL     1     -19.824   0.634  10.556  1.00  0.00    -0.370 N 
ATOM     39  H   UNL     1     -17.255   0.250  12.335  1.00  0.00     0.159 HD
ATOM     40  H   UNL     1     -18.929   0.189  12.787  1.00  0.00     0.159 HD
ATOM     41  H   UNL     1     -20.471   0.766  11.317  1.00  0.00     0.159 HD
ATOM     42  H   UNL     1     -20.176   0.761   9.620  1.00  0.00     0.159 HD
ENDBRANCH  34  35
ENDBRANCH  33  34
ENDBRANCH  32  33
ENDBRANCH   6  32
ENDBRANCH   4   6
ENDBRANCH   1   2
BRANCH   1  43
ATOM     43  C   UNL     1     -11.325   1.526   4.169  1.00  0.00     0.102 C 
ATOM     44  C   UNL     1     -11.741   0.262   4.942  1.00  0.00     0.020 C 
BRANCH  43  45
ATOM     45  C   UNL     1      -9.930   2.043   4.530  1.00  0.00     0.225 C 
ATOM     46  O   UNL     1      -9.181   2.577   3.717  1.00  0.00    -0.275 OA
ATOM     47  N   UNL     1      -9.519   1.789   5.819  1.00  0.00    -0.342 N 
ATOM     48  H   UNL     1     -10.193   1.491   6.509  1.00  0.00     0.164 HD
BRANCH  47  49
ATOM     49  C   UNL     1      -8.221   2.257   6.315  1.00  0.00     0.192 C 
BRANCH  49  50
ATOM     50  C   UNL     1      -7.401   1.064   6.815  1.00  0.00     0.047 C 
BRANCH  50  51
ATOM     51  C   UNL     1      -8.179  -0.256   6.725  1.00  0.00     0.103 C 
BRANCH  51  52
ATOM     52  C   UNL     1      -8.843  -0.622   8.051  1.00  0.00     0.226 C 
ATOM     53  O   UNL     1      -8.237  -0.438   9.108  1.00  0.00    -0.275 OA
BRANCH  52  54
ATOM     54  N   UNL     1     -10.169  -1.089   7.980  1.00  0.00    -0.311 N 
ATOM     55  C   UNL     1     -10.551  -2.137   7.023  1.00  0.00     0.153 C 
BRANCH  54  56
ATOM     56  C   UNL     1     -11.171  -0.578   8.821  1.00  0.00     0.102 C 
ATOM     57  C   UNL     1     -11.984  -1.323   9.588  1.00  0.00     0.043 C 
BRANCH  56  58
ATOM     58  C   UNL     1     -11.382   0.911   8.959  1.00  0.00     0.268 C 
ATOM     59  O   UNL     1     -11.479   1.665   8.001  1.00  0.00    -0.268 OA
ATOM     60  N   UNL     1     -11.519   1.318  10.265  1.00  0.00    -0.339 N 
ATOM     61  H   UNL     1     -11.415   0.632  11.003  1.00  0.00     0.164 HD
BRANCH  60  62
ATOM     62  C   UNL     1     -11.793   2.709  10.622  1.00  0.00     0.168 CG0
ATOM     63  C   UNL     1     -10.769   3.229  11.624  1.00  0.00     0.041 C 
ATOM     64  G   UNL     1     -13.222   2.825  11.193  1.00  0.00     0.000 G0
ENDBRANCH  60  62
ENDBRANCH  56  58
ENDBRANCH  54  56
ENDBRANCH  52  54
ENDBRANCH  51  52
ENDBRANCH  50  51
ENDBRANCH  49  50
BRANCH  49  65
ATOM     65  C   UNL     1      -8.384   3.276   7.454  1.00  0.00     0.326 C 
ATOM     66  O   UNL     1      -8.430   3.008   8.646  1.00  0.00    -0.250 OA
BRANCH  65  67
ATOM     67  O   UNL     1      -8.541   4.555   7.048  1.00  0.00    -0.480 OA
ATOM     68  H   UNL     1      -7.641   4.936   7.130  1.00  0.00     0.296 HD
ENDBRANCH  65  67
ENDBRANCH  49  65
ENDBRANCH  47  49
ENDBRANCH  43  45
ENDBRANCH   1  43
BRANCH   1  69
ATOM     69  C   UNL     1     -11.939   4.091   3.949  1.00  0.00    -0.001 C 
ATOM     70  C   UNL     1     -11.664   5.058   4.842  1.00  0.00     0.001 C 
BRANCH  70  71
ATOM     71  C   UNL     1     -11.219   6.423   4.552  1.00  0.00    -0.055 C 
ATOM     72  C   UNL     1     -10.235   6.582   3.642  1.00  0.00    -0.018 C 
ATOM     73  C   UNL     1     -11.894   7.553   5.285  1.00  0.00     0.044 C 
BRANCH  72  74
ATOM     74  C   UNL     1      -9.581   7.863   3.144  1.00  0.00     0.038 C 
ATOM     75  C   UNL     1      -9.157   7.619   1.691  1.00  0.00     0.015 C 
BRANCH  74  76
ATOM     76  C   UNL     1      -8.419   8.240   4.109  1.00  0.00     0.128 C 
BRANCH  76  77
ATOM     77  O   UNL     1      -8.863   9.236   5.046  1.00  0.00    -0.381 OA
ATOM     78  C   UNL     1      -8.653  10.570   4.604  1.00  0.00     0.195 C 
ENDBRANCH  76  77
BRANCH  76  79
ATOM     79  C   UNL     1      -7.754   7.022   4.799  1.00  0.00     0.068 C 
BRANCH  79  80
ATOM     80  C   UNL     1      -6.595   6.358   4.096  1.00  0.00    -0.045 A 
ATOM     81  C   UNL     1      -6.600   4.980   3.839  1.00  0.00     0.004 A 
ATOM     82  C   UNL     1      -5.475   7.111   3.711  1.00  0.00     0.004 A 
ATOM     83  C   UNL     1      -5.517   4.371   3.201  1.00  0.00     0.000 A 
ATOM     84  C   UNL     1      -4.393   6.501   3.073  1.00  0.00     0.000 A 
ATOM     85  C   UNL     1      -4.415   5.132   2.817  1.00  0.00     0.000 A 
ENDBRANCH  79  80
ENDBRANCH  76  79
ENDBRANCH  74  76
ENDBRANCH  72  74
ENDBRANCH  70  71
ENDBRANCH   1  69
TORSDOF 17
ENDMDL
MODEL 49
REMARK VINA RESULT:    -6.501      3.297      7.135
REMARK INTER + INTRA:         -28.066
REMARK INTER:                 -21.907
REMARK INTRA:                  -6.159
REMARK UNBOUND:                -8.643
REMARK SMILES C=C1C(=O)N[C@H](C)C(=O)N[C@@H](CC(C)C)C(=O)N[C@@H](C(=O)O)[C@H](C)C(=O)N[C@@H](CCCN=C(N)N)C(=O)N[C@@H](/C=C/C(C)=C/[C@H](C)[C@H](Cc2ccccc2)OC)[C@H](C)C(=O)N[C@@H](C(=O)O)CCC(=O)N1C
REMARK SMILES IDX 39 1 38 2 37 3 36 4 28 6 27 7 25 8 26 9 23 11 24 12 19 13
REMARK SMILES IDX 18 14 16 15 17 16 11 18 10 19 8 20 9 21 12 24 13 25 14 26
REMARK SMILES IDX 15 27 20 28 21 29 22 30 29 32 30 33 31 34 32 35 33 36 34 37
REMARK SMILES IDX 35 38 57 43 58 44 59 45 60 46 61 47 62 49 66 50 67 51 68 52
REMARK SMILES IDX 69 53 70 54 71 55 2 56 1 57 3 58 4 59 5 60 6 62 7 63 63 65
REMARK SMILES IDX 64 66 65 67 40 69 41 70 42 71 44 72 43 73 45 74 46 75 47 76
REMARK SMILES IDX 55 77 56 78 48 79 49 80 50 81 54 82 51 83 53 84 52 85
REMARK H PARENT 38 5 27 10 18 17 10 22 22 31 34 39 34 40 35 41 35 42 61 48
REMARK H PARENT 5 61 65 68
REMARK Flexibility Score:  369.900
ROOT
ATOM      1  C   UNL     1     -10.992   3.639   9.587  1.00  0.00     0.117 C 
ENDROOT
BRANCH   1   2
ATOM      2  N   UNL     1      -9.885   3.716   8.633  1.00  0.00    -0.347 N 
ATOM      3  O   UNL     1     -10.333   5.809   7.802  1.00  0.00    -0.273 OA
ATOM      4  C   UNL     1      -9.590   4.836   7.880  1.00  0.00     0.243 C 
ATOM      5  H   UNL     1      -9.257   2.932   8.539  1.00  0.00     0.164 HD
BRANCH   4   6
ATOM      6  C   UNL     1      -8.314   4.685   7.012  1.00  0.00     0.171 C 
BRANCH   6   7
ATOM      7  N   UNL     1      -8.357   5.612   5.870  1.00  0.00    -0.344 N 
ATOM      8  C   UNL     1      -9.091   5.308   4.745  1.00  0.00     0.226 C 
ATOM      9  O   UNL     1      -9.716   4.261   4.628  1.00  0.00    -0.275 OA
ATOM     10  H   UNL     1      -7.799   6.456   5.902  1.00  0.00     0.164 HD
BRANCH   8  11
ATOM     11  C   UNL     1      -9.078   6.388   3.678  1.00  0.00     0.109 C 
ATOM     12  C   UNL     1     -10.508   6.729   3.256  1.00  0.00     0.021 C 
BRANCH  11  13
ATOM     13  C   UNL     1      -8.242   7.590   4.162  1.00  0.00     0.204 C 
BRANCH  13  14
ATOM     14  N   UNL     1      -7.107   7.865   3.276  1.00  0.00    -0.340 N 
ATOM     15  C   UNL     1      -5.851   7.336   3.482  1.00  0.00     0.243 C 
ATOM     16  O   UNL     1      -5.608   6.546   4.392  1.00  0.00    -0.273 OA
ATOM     17  H   UNL     1      -7.201   8.626   2.598  1.00  0.00     0.164 HD
BRANCH  15  18
ATOM     18  C   UNL     1      -4.769   7.929   2.546  1.00  0.00     0.171 C 
BRANCH  18  19
ATOM     19  N   UNL     1      -4.803   9.378   2.732  1.00  0.00    -0.343 N 
ATOM     20  C   UNL     1      -4.854  10.249   1.660  1.00  0.00     0.242 CG0
ATOM     21  O   UNL     1      -4.738   9.853   0.503  1.00  0.00    -0.273 OA
ATOM     22  H   UNL     1      -4.784   9.760   3.670  1.00  0.00     0.164 HD
ATOM     23  G   UNL     1      -4.965  11.737   2.053  1.00  0.00     0.000 G0
ENDBRANCH  18  19
BRANCH  18  24
ATOM     24  C   UNL     1      -3.388   7.352   2.881  1.00  0.00     0.038 C 
BRANCH  24  25
ATOM     25  C   UNL     1      -2.855   6.322   1.863  1.00  0.00    -0.015 C 
ATOM     26  C   UNL     1      -3.196   6.696   0.420  1.00  0.00     0.007 C 
ATOM     27  C   UNL     1      -3.424   4.938   2.185  1.00  0.00     0.007 C 
ENDBRANCH  24  25
ENDBRANCH  18  24
ENDBRANCH  15  18
ENDBRANCH  13  14
BRANCH  13  28
ATOM     28  C   UNL     1      -9.053   8.884   4.276  1.00  0.00     0.327 C 
ATOM     29  O   UNL     1      -9.045   9.814   3.485  1.00  0.00    -0.250 OA
BRANCH  28  30
ATOM     30  O   UNL     1      -9.735   8.980   5.436  1.00  0.00    -0.480 OA
ATOM     31  H   UNL     1      -9.123   9.456   6.036  1.00  0.00     0.296 HD
ENDBRANCH  28  30
ENDBRANCH  13  28
ENDBRANCH  11  13
ENDBRANCH   8  11
ENDBRANCH   6   7
BRANCH   6  32
ATOM     32  C   UNL     1      -7.080   4.945   7.883  1.00  0.00     0.037 C 
BRANCH  32  33
ATOM     33  C   UNL     1      -6.393   3.643   8.317  1.00  0.00     0.026 C 
BRANCH  33  34
ATOM     34  C   UNL     1      -6.824   2.444   7.471  1.00  0.00     0.146 C 
BRANCH  34  35
ATOM     35  N   UNL     1      -7.383   1.426   8.350  1.00  0.00    -0.254 NA
ATOM     36  C   UNL     1      -7.803   0.332   7.833  1.00  0.00     0.185 C 
ATOM     37  N   UNL     1      -8.316  -0.615   8.634  1.00  0.00    -0.370 N 
ATOM     38  N   UNL     1      -7.813  -0.044   6.542  1.00  0.00    -0.370 N 
ATOM     39  H   UNL     1      -8.334  -0.411   9.626  1.00  0.00     0.159 HD
ATOM     40  H   UNL     1      -8.503  -1.556   8.334  1.00  0.00     0.159 HD
ATOM     41  H   UNL     1      -8.299  -0.874   6.245  1.00  0.00     0.159 HD
ATOM     42  H   UNL     1      -7.472   0.577   5.825  1.00  0.00     0.159 HD
ENDBRANCH  34  35
ENDBRANCH  33  34
ENDBRANCH  32  33
ENDBRANCH   6  32
ENDBRANCH   4   6
ENDBRANCH   1   2
BRANCH   1  43
ATOM     43  C   UNL     1     -10.480   2.953  10.886  1.00  0.00     0.102 C 
ATOM     44  C   UNL     1     -10.155   1.461  10.703  1.00  0.00     0.020 C 
BRANCH  43  45
ATOM     45  C   UNL     1     -11.410   3.246  12.066  1.00  0.00     0.225 C 
ATOM     46  O   UNL     1     -11.004   3.436  13.209  1.00  0.00    -0.275 OA
ATOM     47  N   UNL     1     -12.757   3.191  11.787  1.00  0.00    -0.342 N 
ATOM     48  H   UNL     1     -13.068   3.185  10.826  1.00  0.00     0.164 HD
BRANCH  47  49
ATOM     49  C   UNL     1     -13.764   3.484  12.811  1.00  0.00     0.192 C 
BRANCH  49  50
ATOM     50  C   UNL     1     -14.824   2.380  12.821  1.00  0.00     0.047 C 
BRANCH  50  51
ATOM     51  C   UNL     1     -15.324   2.040  11.411  1.00  0.00     0.103 C 
BRANCH  51  52
ATOM     52  C   UNL     1     -16.777   1.568  11.415  1.00  0.00     0.226 C 
ATOM     53  O   UNL     1     -17.485   1.785  12.400  1.00  0.00    -0.275 OA
BRANCH  52  54
ATOM     54  N   UNL     1     -17.244   0.967  10.232  1.00  0.00    -0.311 N 
ATOM     55  C   UNL     1     -16.308   0.487   9.207  1.00  0.00     0.153 C 
BRANCH  54  56
ATOM     56  C   UNL     1     -18.618   0.797   9.990  1.00  0.00     0.102 C 
ATOM     57  C   UNL     1     -19.373   1.619   9.242  1.00  0.00     0.043 C 
BRANCH  56  58
ATOM     58  C   UNL     1     -19.361  -0.397  10.541  1.00  0.00     0.268 C 
ATOM     59  O   UNL     1     -18.986  -1.024  11.523  1.00  0.00    -0.268 OA
ATOM     60  N   UNL     1     -20.530  -0.663   9.869  1.00  0.00    -0.339 N 
ATOM     61  H   UNL     1     -20.764  -0.103   9.058  1.00  0.00     0.164 HD
BRANCH  60  62
ATOM     62  C   UNL     1     -21.435  -1.737  10.276  1.00  0.00     0.168 CG0
ATOM     63  C   UNL     1     -21.756  -2.655   9.103  1.00  0.00     0.041 C 
ATOM     64  G   UNL     1     -22.725  -1.131  10.864  1.00  0.00     0.000 G0
ENDBRANCH  60  62
ENDBRANCH  56  58
ENDBRANCH  54  56
ENDBRANCH  52  54
ENDBRANCH  51  52
ENDBRANCH  50  51
ENDBRANCH  49  50
BRANCH  49  65
ATOM     65  C   UNL     1     -14.444   4.840  12.565  1.00  0.00     0.326 C 
ATOM     66  O   UNL     1     -15.621   5.093  12.775  1.00  0.00    -0.250 OA
BRANCH  65  67
ATOM     67  O   UNL     1     -13.644   5.781  12.018  1.00  0.00    -0.480 OA
ATOM     68  H   UNL     1     -14.189   6.597  12.051  1.00  0.00     0.296 HD
ENDBRANCH  65  67
ENDBRANCH  49  65
ENDBRANCH  47  49
ENDBRANCH  43  45
ENDBRANCH   1  43
BRANCH   1  69
ATOM     69  C   UNL     1     -12.155   3.014   8.837  1.00  0.00    -0.001 C 
ATOM     70  C   UNL     1     -12.094   2.169   7.793  1.00  0.00     0.001 C 
BRANCH  70  71
ATOM     71  C   UNL     1     -13.223   1.556   7.091  1.00  0.00    -0.055 C 
ATOM     72  C   UNL     1     -14.110   2.377   6.490  1.00  0.00    -0.018 C 
ATOM     73  C   UNL     1     -13.312   0.052   7.083  1.00  0.00     0.044 C 
BRANCH  72  74
ATOM     74  C   UNL     1     -15.361   2.029   5.696  1.00  0.00     0.038 C 
ATOM     75  C   UNL     1     -14.937   1.867   4.231  1.00  0.00     0.015 C 
BRANCH  74  76
ATOM     76  C   UNL     1     -16.436   3.127   5.948  1.00  0.00     0.128 C 
BRANCH  76  77
ATOM     77  O   UNL     1     -17.625   2.830   5.196  1.00  0.00    -0.381 OA
ATOM     78  C   UNL     1     -18.234   1.597   5.554  1.00  0.00     0.195 C 
ENDBRANCH  76  77
BRANCH  76  79
ATOM     79  C   UNL     1     -16.724   3.394   7.446  1.00  0.00     0.068 C 
BRANCH  79  80
ATOM     80  C   UNL     1     -16.245   4.697   8.037  1.00  0.00    -0.045 A 
ATOM     81  C   UNL     1     -14.938   5.153   7.817  1.00  0.00     0.004 A 
ATOM     82  C   UNL     1     -17.098   5.464   8.845  1.00  0.00     0.004 A 
ATOM     83  C   UNL     1     -14.498   6.353   8.379  1.00  0.00     0.000 A 
ATOM     84  C   UNL     1     -16.657   6.664   9.407  1.00  0.00     0.000 A 
ATOM     85  C   UNL     1     -15.358   7.109   9.173  1.00  0.00     0.000 A 
ENDBRANCH  79  80
ENDBRANCH  76  79
ENDBRANCH  74  76
ENDBRANCH  72  74
ENDBRANCH  70  71
ENDBRANCH   1  69
TORSDOF 17
ENDMDL
MODEL 50
REMARK VINA RESULT:    -6.468      3.950     12.823
REMARK INTER + INTRA:         -27.967
REMARK INTER:                 -21.358
REMARK INTRA:                  -6.609
REMARK UNBOUND:                -8.643
REMARK SMILES C=C1C(=O)N[C@H](C)C(=O)N[C@@H](CC(C)C)C(=O)N[C@@H](C(=O)O)[C@H](C)C(=O)N[C@@H](CCCN=C(N)N)C(=O)N[C@@H](/C=C/C(C)=C/[C@H](C)[C@H](Cc2ccccc2)OC)[C@H](C)C(=O)N[C@@H](C(=O)O)CCC(=O)N1C
REMARK SMILES IDX 39 1 38 2 37 3 36 4 28 6 27 7 25 8 26 9 23 11 24 12 19 13
REMARK SMILES IDX 18 14 16 15 17 16 11 18 10 19 8 20 9 21 12 24 13 25 14 26
REMARK SMILES IDX 15 27 20 28 21 29 22 30 29 32 30 33 31 34 32 35 33 36 34 37
REMARK SMILES IDX 35 38 57 43 58 44 59 45 60 46 61 47 62 49 66 50 67 51 68 52
REMARK SMILES IDX 69 53 70 54 71 55 2 56 1 57 3 58 4 59 5 60 6 62 7 63 63 65
REMARK SMILES IDX 64 66 65 67 40 69 41 70 42 71 44 72 43 73 45 74 46 75 47 76
REMARK SMILES IDX 55 77 56 78 48 79 49 80 50 81 54 82 51 83 53 84 52 85
REMARK H PARENT 38 5 27 10 18 17 10 22 22 31 34 39 34 40 35 41 35 42 61 48
REMARK H PARENT 5 61 65 68
REMARK Flexibility Score:  369.900
ROOT
ATOM      1  C   UNL     1     -17.755   1.560   8.595  1.00  0.00     0.117 C 
ENDROOT
BRANCH   1   2
ATOM      2  N   UNL     1     -18.081   0.905   9.862  1.00  0.00    -0.347 N 
ATOM      3  O   UNL     1     -20.359   0.822   9.594  1.00  0.00    -0.273 OA
ATOM      4  C   UNL     1     -19.353   0.505  10.221  1.00  0.00     0.243 C 
ATOM      5  H   UNL     1     -17.339   0.679  10.507  1.00  0.00     0.164 HD
BRANCH   4   6
ATOM      6  C   UNL     1     -19.413  -0.243  11.577  1.00  0.00     0.171 C 
BRANCH   6   7
ATOM      7  N   UNL     1     -20.380  -1.350  11.512  1.00  0.00    -0.344 N 
ATOM      8  C   UNL     1     -21.232  -1.601  12.566  1.00  0.00     0.226 C 
ATOM      9  O   UNL     1     -21.214  -0.944  13.600  1.00  0.00    -0.275 OA
ATOM     10  H   UNL     1     -20.379  -1.956  10.702  1.00  0.00     0.164 HD
BRANCH   8  11
ATOM     11  C   UNL     1     -22.207  -2.740  12.325  1.00  0.00     0.109 C 
ATOM     12  C   UNL     1     -23.082  -2.435  11.109  1.00  0.00     0.021 C 
BRANCH  11  13
ATOM     13  C   UNL     1     -21.440  -4.076  12.254  1.00  0.00     0.204 C 
BRANCH  13  14
ATOM     14  N   UNL     1     -21.136  -4.464  10.873  1.00  0.00    -0.340 N 
ATOM     15  C   UNL     1     -21.857  -5.418  10.188  1.00  0.00     0.243 C 
ATOM     16  O   UNL     1     -22.847  -5.969  10.668  1.00  0.00    -0.273 OA
ATOM     17  H   UNL     1     -20.244  -4.160  10.474  1.00  0.00     0.164 HD
BRANCH  15  18
ATOM     18  C   UNL     1     -21.228  -5.811   8.829  1.00  0.00     0.171 C 
BRANCH  18  19
ATOM     19  N   UNL     1     -21.936  -5.046   7.804  1.00  0.00    -0.343 N 
ATOM     20  C   UNL     1     -23.107  -5.504   7.232  1.00  0.00     0.242 CG0
ATOM     21  O   UNL     1     -23.537  -6.632   7.461  1.00  0.00    -0.273 OA
ATOM     22  H   UNL     1     -21.557  -4.158   7.496  1.00  0.00     0.164 HD
ATOM     23  G   UNL     1     -23.750  -4.525   6.228  1.00  0.00     0.000 G0
ENDBRANCH  18  19
BRANCH  18  24
ATOM     24  C   UNL     1     -19.725  -5.507   8.820  1.00  0.00     0.038 C 
BRANCH  24  25
ATOM     25  C   UNL     1     -19.060  -5.586   7.429  1.00  0.00    -0.015 C 
ATOM     26  C   UNL     1     -18.268  -6.879   7.232  1.00  0.00     0.007 C 
ATOM     27  C   UNL     1     -18.137  -4.381   7.231  1.00  0.00     0.007 C 
ENDBRANCH  24  25
ENDBRANCH  18  24
ENDBRANCH  15  18
ENDBRANCH  13  14
BRANCH  13  28
ATOM     28  C   UNL     1     -20.115  -4.053  13.021  1.00  0.00     0.327 C 
ATOM     29  O   UNL     1     -18.999  -4.173  12.540  1.00  0.00    -0.250 OA
BRANCH  28  30
ATOM     30  O   UNL     1     -20.279  -3.999  14.359  1.00  0.00    -0.480 OA
ATOM     31  H   UNL     1     -19.411  -3.698  14.697  1.00  0.00     0.296 HD
ENDBRANCH  28  30
ENDBRANCH  13  28
ENDBRANCH  11  13
ENDBRANCH   8  11
ENDBRANCH   6   7
BRANCH   6  32
ATOM     32  C   UNL     1     -18.013  -0.759  11.928  1.00  0.00     0.037 C 
BRANCH  32  33
ATOM     33  C   UNL     1     -17.844  -0.994  13.436  1.00  0.00     0.026 C 
BRANCH  33  34
ATOM     34  C   UNL     1     -17.617   0.307  14.208  1.00  0.00     0.146 C 
BRANCH  34  35
ATOM     35  N   UNL     1     -16.355   0.894  13.779  1.00  0.00    -0.254 NA
ATOM     36  C   UNL     1     -16.018   2.037  14.249  1.00  0.00     0.185 C 
ATOM     37  N   UNL     1     -14.855   2.585  13.864  1.00  0.00    -0.370 N 
ATOM     38  N   UNL     1     -16.679   2.821  15.118  1.00  0.00    -0.370 N 
ATOM     39  H   UNL     1     -14.293   2.049  13.216  1.00  0.00     0.159 HD
ATOM     40  H   UNL     1     -14.442   3.384  14.313  1.00  0.00     0.159 HD
ATOM     41  H   UNL     1     -16.376   3.763  15.305  1.00  0.00     0.159 HD
ATOM     42  H   UNL     1     -17.578   2.541  15.480  1.00  0.00     0.159 HD
ENDBRANCH  34  35
ENDBRANCH  33  34
ENDBRANCH  32  33
ENDBRANCH   6  32
ENDBRANCH   4   6
ENDBRANCH   1   2
BRANCH   1  43
ATOM     43  C   UNL     1     -16.800   0.632   7.789  1.00  0.00     0.102 C 
ATOM     44  C   UNL     1     -17.475  -0.658   7.293  1.00  0.00     0.020 C 
BRANCH  43  45
ATOM     45  C   UNL     1     -15.492   0.395   8.550  1.00  0.00     0.225 C 
ATOM     46  O   UNL     1     -15.453   0.081   9.736  1.00  0.00    -0.275 OA
ATOM     47  N   UNL     1     -14.340   0.650   7.841  1.00  0.00    -0.342 N 
ATOM     48  H   UNL     1     -14.384   0.758   6.837  1.00  0.00     0.164 HD
BRANCH  47  49
ATOM     49  C   UNL     1     -13.015   0.433   8.429  1.00  0.00     0.192 C 
BRANCH  49  50
ATOM     50  C   UNL     1     -11.961   1.185   7.613  1.00  0.00     0.047 C 
BRANCH  50  51
ATOM     51  C   UNL     1     -10.601   1.235   8.323  1.00  0.00     0.103 C 
BRANCH  51  52
ATOM     52  C   UNL     1      -9.641   2.219   7.656  1.00  0.00     0.226 C 
ATOM     53  O   UNL     1      -9.973   3.398   7.522  1.00  0.00    -0.275 OA
BRANCH  52  54
ATOM     54  N   UNL     1      -8.377   1.716   7.298  1.00  0.00    -0.311 N 
ATOM     55  C   UNL     1      -8.205   0.311   6.907  1.00  0.00     0.153 C 
BRANCH  54  56
ATOM     56  C   UNL     1      -7.237   2.536   7.295  1.00  0.00     0.102 C 
ATOM     57  C   UNL     1      -6.444   2.754   8.357  1.00  0.00     0.043 C 
BRANCH  56  58
ATOM     58  C   UNL     1      -6.779   3.223   6.029  1.00  0.00     0.268 C 
ATOM     59  O   UNL     1      -7.455   3.268   5.010  1.00  0.00    -0.268 OA
ATOM     60  N   UNL     1      -5.561   3.846   6.163  1.00  0.00    -0.339 N 
ATOM     61  H   UNL     1      -5.059   3.752   7.038  1.00  0.00     0.164 HD
BRANCH  60  62
ATOM     62  C   UNL     1      -4.961   4.622   5.079  1.00  0.00     0.168 CG0
ATOM     63  C   UNL     1      -5.090   6.118   5.341  1.00  0.00     0.041 C 
ATOM     64  G   UNL     1      -5.627   4.243   3.740  1.00  0.00     0.000 G0
ENDBRANCH  60  62
ENDBRANCH  56  58
ENDBRANCH  54  56
ENDBRANCH  52  54
ENDBRANCH  51  52
ENDBRANCH  50  51
ENDBRANCH  49  50
BRANCH  49  65
ATOM     65  C   UNL     1     -12.653  -1.060   8.475  1.00  0.00     0.326 C 
ATOM     66  O   UNL     1     -12.359  -1.750   7.510  1.00  0.00    -0.250 OA
BRANCH  65  67
ATOM     67  O   UNL     1     -12.735  -1.622   9.701  1.00  0.00    -0.480 OA
ATOM     68  H   UNL     1     -12.999  -0.875  10.281  1.00  0.00     0.296 HD
ENDBRANCH  65  67
ENDBRANCH  49  65
ENDBRANCH  47  49
ENDBRANCH  43  45
ENDBRANCH   1  43
BRANCH   1  69
ATOM     69  C   UNL     1     -17.290   2.961   8.949  1.00  0.00    -0.001 C 
ATOM     70  C   UNL     1     -16.774   3.380  10.118  1.00  0.00     0.001 C 
BRANCH  70  71
ATOM     71  C   UNL     1     -16.309   4.730  10.440  1.00  0.00    -0.055 C 
ATOM     72  C   UNL     1     -16.211   5.618   9.429  1.00  0.00    -0.018 C 
ATOM     73  C   UNL     1     -15.980   5.035  11.879  1.00  0.00     0.044 C 
BRANCH  72  74
ATOM     74  C   UNL     1     -15.766   7.074   9.465  1.00  0.00     0.038 C 
ATOM     75  C   UNL     1     -16.645   7.841   8.470  1.00  0.00     0.015 C 
BRANCH  74  76
ATOM     76  C   UNL     1     -14.238   7.138   9.171  1.00  0.00     0.128 C 
BRANCH  76  77
ATOM     77  O   UNL     1     -13.962   8.194   8.236  1.00  0.00    -0.381 OA
ATOM     78  C   UNL     1     -12.615   8.646   8.266  1.00  0.00     0.195 C 
ENDBRANCH  76  77
BRANCH  76  79
ATOM     79  C   UNL     1     -13.355   7.217  10.442  1.00  0.00     0.068 C 
BRANCH  79  80
ATOM     80  C   UNL     1     -12.756   5.934  10.968  1.00  0.00    -0.045 A 
ATOM     81  C   UNL     1     -12.549   5.744  12.340  1.00  0.00     0.004 A 
ATOM     82  C   UNL     1     -12.370   4.919  10.080  1.00  0.00     0.004 A 
ATOM     83  C   UNL     1     -11.981   4.561  12.817  1.00  0.00     0.000 A 
ATOM     84  C   UNL     1     -11.801   3.736  10.559  1.00  0.00     0.000 A 
ATOM     85  C   UNL     1     -11.609   3.556  11.926  1.00  0.00     0.000 A 
ENDBRANCH  79  80
ENDBRANCH  76  79
ENDBRANCH  74  76
ENDBRANCH  72  74
ENDBRANCH  70  71
ENDBRANCH   1  69
TORSDOF 17
ENDMDL
