MODEL 1
REMARK VINA RESULT:    -4.922      0.000      0.000
REMARK INTER + INTRA:         -19.484
REMARK INTER:                 -12.260
REMARK INTRA:                  -7.224
REMARK UNBOUND:                -7.224
REMARK SMILES CCCCCCC[C@H](N)[C@H](O)C(=O)N[C@H](C)C(=O)N(C)[C@H](CC(C)C)C(=O)N[C@@H](Cc1ccc(O)cc1)C(=O)N[C@@H](Cc1ccc(O)cc1)C(=O)O
REMARK SMILES IDX 18 1 17 2 15 3 16 4 14 5 12 6 13 7 10 9 11 10 8 12 9 13 7 16
REMARK SMILES IDX 6 17 5 18 4 19 3 20 2 21 1 22 19 23 20 24 21 25 22 26 23 27
REMARK SMILES IDX 24 28 25 29 26 30 27 31 28 32 29 34 30 35 31 36 32 37 37 38
REMARK SMILES IDX 33 39 36 40 34 41 35 42 38 44 39 45 40 46 41 48 42 49 43 50
REMARK SMILES IDX 44 51 49 52 45 53 48 54 46 55 47 56 50 58 51 59 52 60
REMARK H PARENT 14 8 11 11 9 14 9 15 28 33 35 43 40 47 47 57 52 61
ROOT
ATOM      1  O   UNL     1      10.478  -8.546   3.545  1.00  0.00    -0.272 OA
ATOM      2  C   UNL     1      10.037  -7.684   2.770  1.00  0.00     0.245 C 
ENDROOT
BRANCH   2   3
ATOM      3  C   UNL     1      10.661  -6.267   2.806  1.00  0.00     0.168 C 
ATOM      4  C   UNL     1      12.041  -6.266   2.158  1.00  0.00     0.041 C 
BRANCH   3   5
ATOM      5  N   UNL     1       9.812  -5.212   2.273  1.00  0.00    -0.342 N 
ATOM      6  C   UNL     1       9.011  -4.441   3.089  1.00  0.00     0.251 C 
ATOM      7  O   UNL     1       8.920  -4.607   4.300  1.00  0.00    -0.272 OA
ATOM      8  H   UNL     1       9.776  -5.004   1.278  1.00  0.00     0.164 HD
BRANCH   6   9
ATOM      9  C   UNL     1       8.314  -3.300   2.330  1.00  0.00     0.219 C 
BRANCH   9  10
ATOM     10  O   UNL     1       8.740  -2.004   2.767  1.00  0.00    -0.382 OA
ATOM     11  H   UNL     1       9.355  -2.201   3.508  1.00  0.00     0.211 HD
ENDBRANCH   9  10
BRANCH   9  12
ATOM     12  C   UNL     1       8.436  -3.429   0.789  1.00  0.00     0.089 C 
BRANCH  12  13
ATOM     13  N   UNL     1       7.508  -4.490   0.334  1.00  0.00    -0.325 NA
ATOM     14  H   UNL     1       7.462  -4.480  -0.687  1.00  0.00     0.119 HD
ATOM     15  H   UNL     1       6.562  -4.259   0.646  1.00  0.00     0.119 HD
ENDBRANCH  12  13
BRANCH  12  16
ATOM     16  C   UNL     1       8.199  -2.132  -0.021  1.00  0.00     0.022 C 
BRANCH  16  17
ATOM     17  C   UNL     1       8.138  -2.209  -1.553  1.00  0.00     0.002 C 
BRANCH  17  18
ATOM     18  C   UNL     1       9.495  -2.215  -2.252  1.00  0.00     0.000 C 
BRANCH  18  19
ATOM     19  C   UNL     1       9.763  -3.475  -3.086  1.00  0.00    -0.000 C 
BRANCH  19  20
ATOM     20  C   UNL     1      10.716  -3.282  -4.269  1.00  0.00    -0.000 C 
BRANCH  20  21
ATOM     21  C   UNL     1      10.012  -3.370  -5.626  1.00  0.00    -0.003 C 
ATOM     22  C   UNL     1       8.683  -4.101  -5.514  1.00  0.00     0.004 C 
ENDBRANCH  20  21
ENDBRANCH  19  20
ENDBRANCH  18  19
ENDBRANCH  17  18
ENDBRANCH  16  17
ENDBRANCH  12  16
ENDBRANCH   9  12
ENDBRANCH   6   9
ENDBRANCH   3   5
ENDBRANCH   2   3
BRANCH   2  23
ATOM     23  N   UNL     1       9.091  -8.030   1.812  1.00  0.00    -0.332 N 
ATOM     24  C   UNL     1       7.660  -7.801   1.944  1.00  0.00     0.147 C 
BRANCH  23  25
ATOM     25  C   UNL     1       9.521  -8.561   0.489  1.00  0.00     0.174 C 
BRANCH  25  26
ATOM     26  C   UNL     1      10.957  -9.134   0.508  1.00  0.00     0.038 C 
BRANCH  26  27
ATOM     27  C   UNL     1      11.648  -9.338  -0.859  1.00  0.00    -0.015 C 
ATOM     28  C   UNL     1      12.955  -8.553  -0.976  1.00  0.00     0.007 C 
ATOM     29  C   UNL     1      11.869 -10.805  -1.215  1.00  0.00     0.007 C 
ENDBRANCH  26  27
ENDBRANCH  25  26
BRANCH  25  30
ATOM     30  C   UNL     1       9.289  -7.500  -0.611  1.00  0.00     0.243 C 
ATOM     31  O   UNL     1       9.794  -6.380  -0.550  1.00  0.00    -0.273 OA
ATOM     32  N   UNL     1       8.484  -7.889  -1.650  1.00  0.00    -0.342 N 
ATOM     33  H   UNL     1       8.219  -8.876  -1.701  1.00  0.00     0.164 HD
BRANCH  32  34
ATOM     34  C   UNL     1       8.133  -7.006  -2.766  1.00  0.00     0.175 C 
BRANCH  34  35
ATOM     35  C   UNL     1       8.441  -7.667  -4.119  1.00  0.00     0.070 C 
BRANCH  35  36
ATOM     36  C   UNL     1       9.911  -7.970  -4.300  1.00  0.00    -0.045 A 
ATOM     37  C   UNL     1      10.845  -6.922  -4.335  1.00  0.00     0.007 A 
ATOM     38  C   UNL     1      10.360  -9.288  -4.459  1.00  0.00     0.007 A 
ATOM     39  C   UNL     1      12.202  -7.191  -4.516  1.00  0.00     0.046 A 
ATOM     40  C   UNL     1      11.718  -9.557  -4.641  1.00  0.00     0.046 A 
ATOM     41  C   UNL     1      12.628  -8.505  -4.667  1.00  0.00     0.115 A 
BRANCH  41  42
ATOM     42  O   UNL     1      13.962  -8.724  -4.844  1.00  0.00    -0.508 OA
ATOM     43  H   UNL     1      14.437  -8.334  -4.092  1.00  0.00     0.293 HD
ENDBRANCH  41  42
ENDBRANCH  35  36
ENDBRANCH  34  35
BRANCH  34  44
ATOM     44  C   UNL     1       6.639  -6.635  -2.632  1.00  0.00     0.243 C 
ATOM     45  O   UNL     1       5.763  -7.408  -2.254  1.00  0.00    -0.273 OA
ATOM     46  N   UNL     1       6.342  -5.374  -3.105  1.00  0.00    -0.341 N 
ATOM     47  H   UNL     1       7.084  -4.814  -3.517  1.00  0.00     0.164 HD
BRANCH  46  48
ATOM     48  C   UNL     1       4.984  -4.828  -3.144  1.00  0.00     0.196 C 
BRANCH  48  49
ATOM     49  C   UNL     1       4.993  -3.295  -3.018  1.00  0.00     0.072 C 
BRANCH  49  50
ATOM     50  C   UNL     1       4.411  -2.815  -1.708  1.00  0.00    -0.045 A 
ATOM     51  C   UNL     1       3.752  -3.721  -0.863  1.00  0.00     0.007 A 
ATOM     52  C   UNL     1       4.499  -1.470  -1.329  1.00  0.00     0.007 A 
ATOM     53  C   UNL     1       3.199  -3.287   0.342  1.00  0.00     0.046 A 
ATOM     54  C   UNL     1       3.944  -1.036  -0.123  1.00  0.00     0.046 A 
ATOM     55  C   UNL     1       3.299  -1.949   0.703  1.00  0.00     0.115 A 
BRANCH  55  56
ATOM     56  O   UNL     1       2.744  -1.566   1.888  1.00  0.00    -0.508 OA
ATOM     57  H   UNL     1       3.276  -0.843   2.256  1.00  0.00     0.293 HD
ENDBRANCH  55  56
ENDBRANCH  49  50
ENDBRANCH  48  49
BRANCH  48  58
ATOM     58  C   UNL     1       4.322  -5.231  -4.469  1.00  0.00     0.326 C 
ATOM     59  O   UNL     1       4.070  -4.508  -5.420  1.00  0.00    -0.250 OA
BRANCH  58  60
ATOM     60  O   UNL     1       4.015  -6.551  -4.541  1.00  0.00    -0.480 OA
ATOM     61  H   UNL     1       4.830  -6.952  -4.916  1.00  0.00     0.296 HD
ENDBRANCH  58  60
ENDBRANCH  48  58
ENDBRANCH  46  48
ENDBRANCH  34  44
ENDBRANCH  32  34
ENDBRANCH  25  30
ENDBRANCH  23  25
ENDBRANCH   2  23
TORSDOF 28
ENDMDL
MODEL 2
REMARK VINA RESULT:    -4.915      2.287      6.234
REMARK INTER + INTRA:         -19.465
REMARK INTER:                 -12.636
REMARK INTRA:                  -6.829
REMARK UNBOUND:                -7.224
REMARK SMILES CCCCCCC[C@H](N)[C@H](O)C(=O)N[C@H](C)C(=O)N(C)[C@H](CC(C)C)C(=O)N[C@@H](Cc1ccc(O)cc1)C(=O)N[C@@H](Cc1ccc(O)cc1)C(=O)O
REMARK SMILES IDX 18 1 17 2 15 3 16 4 14 5 12 6 13 7 10 9 11 10 8 12 9 13 7 16
REMARK SMILES IDX 6 17 5 18 4 19 3 20 2 21 1 22 19 23 20 24 21 25 22 26 23 27
REMARK SMILES IDX 24 28 25 29 26 30 27 31 28 32 29 34 30 35 31 36 32 37 37 38
REMARK SMILES IDX 33 39 36 40 34 41 35 42 38 44 39 45 40 46 41 48 42 49 43 50
REMARK SMILES IDX 44 51 49 52 45 53 48 54 46 55 47 56 50 58 51 59 52 60
REMARK H PARENT 14 8 11 11 9 14 9 15 28 33 35 43 40 47 47 57 52 61
ROOT
ATOM      1  O   UNL     1       7.078  -7.227   3.166  1.00  0.00    -0.272 OA
ATOM      2  C   UNL     1       7.868  -7.394   2.226  1.00  0.00     0.245 C 
ENDROOT
BRANCH   2   3
ATOM      3  C   UNL     1       9.074  -8.345   2.431  1.00  0.00     0.168 C 
ATOM      4  C   UNL     1       8.600  -9.763   2.734  1.00  0.00     0.041 C 
BRANCH   3   5
ATOM      5  N   UNL     1      10.061  -8.321   1.362  1.00  0.00    -0.342 N 
ATOM      6  C   UNL     1      11.405  -8.154   1.617  1.00  0.00     0.251 C 
ATOM      7  O   UNL     1      11.864  -7.975   2.740  1.00  0.00    -0.272 OA
ATOM      8  H   UNL     1       9.796  -8.424   0.385  1.00  0.00     0.164 HD
BRANCH   6   9
ATOM      9  C   UNL     1      12.272  -8.303   0.356  1.00  0.00     0.219 C 
BRANCH   9  10
ATOM     10  O   UNL     1      13.595  -7.781   0.530  1.00  0.00    -0.382 OA
ATOM     11  H   UNL     1      13.647  -7.059  -0.135  1.00  0.00     0.211 HD
ENDBRANCH   9  10
BRANCH   9  12
ATOM     12  C   UNL     1      12.321  -9.757  -0.181  1.00  0.00     0.089 C 
BRANCH  12  13
ATOM     13  N   UNL     1      12.082 -10.682   0.951  1.00  0.00    -0.325 NA
ATOM     14  H   UNL     1      11.084 -10.698   1.167  1.00  0.00     0.119 HD
ATOM     15  H   UNL     1      12.530 -10.302   1.788  1.00  0.00     0.119 HD
ENDBRANCH  12  13
BRANCH  12  16
ATOM     16  C   UNL     1      11.354 -10.083  -1.345  1.00  0.00     0.022 C 
BRANCH  16  17
ATOM     17  C   UNL     1      11.925 -10.644  -2.655  1.00  0.00     0.002 C 
BRANCH  17  18
ATOM     18  C   UNL     1      11.248 -10.134  -3.925  1.00  0.00     0.000 C 
BRANCH  18  19
ATOM     19  C   UNL     1      12.227  -9.663  -5.009  1.00  0.00    -0.000 C 
BRANCH  19  20
ATOM     20  C   UNL     1      13.700  -9.648  -4.592  1.00  0.00    -0.000 C 
BRANCH  20  21
ATOM     21  C   UNL     1      14.226  -8.240  -4.300  1.00  0.00    -0.003 C 
ATOM     22  C   UNL     1      14.595  -8.079  -2.833  1.00  0.00     0.004 C 
ENDBRANCH  20  21
ENDBRANCH  19  20
ENDBRANCH  18  19
ENDBRANCH  17  18
ENDBRANCH  16  17
ENDBRANCH  12  16
ENDBRANCH   9  12
ENDBRANCH   6   9
ENDBRANCH   3   5
ENDBRANCH   2   3
BRANCH   2  23
ATOM     23  N   UNL     1       7.599  -6.832   0.982  1.00  0.00    -0.332 N 
ATOM     24  C   UNL     1       6.757  -7.444  -0.035  1.00  0.00     0.147 C 
BRANCH  23  25
ATOM     25  C   UNL     1       8.074  -5.459   0.660  1.00  0.00     0.174 C 
BRANCH  25  26
ATOM     26  C   UNL     1       8.568  -4.685   1.904  1.00  0.00     0.038 C 
BRANCH  26  27
ATOM     27  C   UNL     1      10.095  -4.636   2.139  1.00  0.00    -0.015 C 
ATOM     28  C   UNL     1      10.880  -4.471   0.838  1.00  0.00     0.007 C 
ATOM     29  C   UNL     1      10.519  -3.584   3.160  1.00  0.00     0.007 C 
ENDBRANCH  26  27
ENDBRANCH  25  26
BRANCH  25  30
ATOM     30  C   UNL     1       7.002  -4.703  -0.158  1.00  0.00     0.243 C 
ATOM     31  O   UNL     1       5.926  -4.367   0.335  1.00  0.00    -0.273 OA
ATOM     32  N   UNL     1       7.328  -4.439  -1.463  1.00  0.00    -0.342 N 
ATOM     33  H   UNL     1       8.290  -4.623  -1.758  1.00  0.00     0.164 HD
BRANCH  32  34
ATOM     34  C   UNL     1       6.424  -3.757  -2.393  1.00  0.00     0.175 C 
BRANCH  34  35
ATOM     35  C   UNL     1       6.887  -2.318  -2.667  1.00  0.00     0.070 C 
BRANCH  35  36
ATOM     36  C   UNL     1       8.378  -2.139  -2.490  1.00  0.00    -0.045 A 
ATOM     37  C   UNL     1       9.258  -2.541  -3.507  1.00  0.00     0.007 A 
ATOM     38  C   UNL     1       8.902  -1.597  -1.310  1.00  0.00     0.007 A 
ATOM     39  C   UNL     1      10.636  -2.393  -3.347  1.00  0.00     0.046 A 
ATOM     40  C   UNL     1      10.282  -1.450  -1.149  1.00  0.00     0.046 A 
ATOM     41  C   UNL     1      11.137  -1.849  -2.171  1.00  0.00     0.115 A 
BRANCH  41  42
ATOM     42  O   UNL     1      12.490  -1.724  -2.054  1.00  0.00    -0.508 OA
ATOM     43  H   UNL     1      12.677  -1.070  -1.360  1.00  0.00     0.293 HD
ENDBRANCH  41  42
ENDBRANCH  35  36
ENDBRANCH  34  35
BRANCH  34  44
ATOM     44  C   UNL     1       6.347  -4.595  -3.689  1.00  0.00     0.243 C 
ATOM     45  O   UNL     1       5.817  -4.217  -4.730  1.00  0.00    -0.273 OA
ATOM     46  N   UNL     1       6.819  -5.882  -3.538  1.00  0.00    -0.341 N 
ATOM     47  H   UNL     1       7.141  -6.186  -2.623  1.00  0.00     0.164 HD
BRANCH  46  48
ATOM     48  C   UNL     1       6.786  -6.882  -4.608  1.00  0.00     0.196 C 
BRANCH  48  49
ATOM     49  C   UNL     1       7.975  -7.853  -4.503  1.00  0.00     0.072 C 
BRANCH  49  50
ATOM     50  C   UNL     1       9.211  -7.198  -3.930  1.00  0.00    -0.045 A 
ATOM     51  C   UNL     1       9.418  -7.189  -2.543  1.00  0.00     0.007 A 
ATOM     52  C   UNL     1      10.151  -6.578  -4.763  1.00  0.00     0.007 A 
ATOM     53  C   UNL     1      10.548  -6.577  -2.001  1.00  0.00     0.046 A 
ATOM     54  C   UNL     1      11.282  -5.964  -4.221  1.00  0.00     0.046 A 
ATOM     55  C   UNL     1      11.472  -5.970  -2.843  1.00  0.00     0.115 A 
BRANCH  55  56
ATOM     56  O   UNL     1      12.562  -5.381  -2.274  1.00  0.00    -0.508 OA
ATOM     57  H   UNL     1      12.452  -5.402  -1.310  1.00  0.00     0.293 HD
ENDBRANCH  55  56
ENDBRANCH  49  50
ENDBRANCH  48  49
BRANCH  48  58
ATOM     58  C   UNL     1       5.471  -7.668  -4.516  1.00  0.00     0.326 C 
ATOM     59  O   UNL     1       4.359  -7.290  -4.848  1.00  0.00    -0.250 OA
BRANCH  58  60
ATOM     60  O   UNL     1       5.622  -8.921  -4.016  1.00  0.00    -0.480 OA
ATOM     61  H   UNL     1       4.707  -9.177  -3.769  1.00  0.00     0.296 HD
ENDBRANCH  58  60
ENDBRANCH  48  58
ENDBRANCH  46  48
ENDBRANCH  34  44
ENDBRANCH  32  34
ENDBRANCH  25  30
ENDBRANCH  23  25
ENDBRANCH   2  23
TORSDOF 28
ENDMDL
MODEL 3
REMARK VINA RESULT:    -4.855      2.402      5.351
REMARK INTER + INTRA:         -19.316
REMARK INTER:                 -13.553
REMARK INTRA:                  -5.763
REMARK UNBOUND:                -7.224
REMARK SMILES CCCCCCC[C@H](N)[C@H](O)C(=O)N[C@H](C)C(=O)N(C)[C@H](CC(C)C)C(=O)N[C@@H](Cc1ccc(O)cc1)C(=O)N[C@@H](Cc1ccc(O)cc1)C(=O)O
REMARK SMILES IDX 18 1 17 2 15 3 16 4 14 5 12 6 13 7 10 9 11 10 8 12 9 13 7 16
REMARK SMILES IDX 6 17 5 18 4 19 3 20 2 21 1 22 19 23 20 24 21 25 22 26 23 27
REMARK SMILES IDX 24 28 25 29 26 30 27 31 28 32 29 34 30 35 31 36 32 37 37 38
REMARK SMILES IDX 33 39 36 40 34 41 35 42 38 44 39 45 40 46 41 48 42 49 43 50
REMARK SMILES IDX 44 51 49 52 45 53 48 54 46 55 47 56 50 58 51 59 52 60
REMARK H PARENT 14 8 11 11 9 14 9 15 28 33 35 43 40 47 47 57 52 61
ROOT
ATOM      1  O   UNL     1      10.843  -2.335   1.276  1.00  0.00    -0.272 OA
ATOM      2  C   UNL     1      11.045  -3.525   0.992  1.00  0.00     0.245 C 
ENDROOT
BRANCH   2   3
ATOM      3  C   UNL     1      11.634  -4.456   2.081  1.00  0.00     0.168 C 
ATOM      4  C   UNL     1      12.289  -3.644   3.192  1.00  0.00     0.041 C 
BRANCH   3   5
ATOM      5  N   UNL     1      10.706  -5.445   2.607  1.00  0.00    -0.342 N 
ATOM      6  C   UNL     1      11.012  -6.789   2.636  1.00  0.00     0.251 C 
ATOM      7  O   UNL     1      12.055  -7.254   2.190  1.00  0.00    -0.272 OA
ATOM      8  H   UNL     1       9.794  -5.182   2.974  1.00  0.00     0.164 HD
BRANCH   6   9
ATOM      9  C   UNL     1       9.947  -7.626   3.363  1.00  0.00     0.219 C 
BRANCH   9  10
ATOM     10  O   UNL     1       9.629  -7.109   4.660  1.00  0.00    -0.382 OA
ATOM     11  H   UNL     1       8.767  -6.657   4.524  1.00  0.00     0.211 HD
ENDBRANCH   9  10
BRANCH   9  12
ATOM     12  C   UNL     1       8.661  -7.837   2.523  1.00  0.00     0.089 C 
BRANCH  12  13
ATOM     13  N   UNL     1       7.751  -6.694   2.766  1.00  0.00    -0.325 NA
ATOM     14  H   UNL     1       7.736  -6.094   1.939  1.00  0.00     0.119 HD
ATOM     15  H   UNL     1       8.143  -6.112   3.511  1.00  0.00     0.119 HD
ENDBRANCH  12  13
BRANCH  12  16
ATOM     16  C   UNL     1       8.869  -8.036   1.002  1.00  0.00     0.022 C 
BRANCH  16  17
ATOM     17  C   UNL     1       9.645  -9.265   0.509  1.00  0.00     0.002 C 
BRANCH  17  18
ATOM     18  C   UNL     1      10.616  -8.996  -0.638  1.00  0.00     0.000 C 
BRANCH  18  19
ATOM     19  C   UNL     1      11.536 -10.179  -0.968  1.00  0.00    -0.000 C 
BRANCH  19  20
ATOM     20  C   UNL     1      12.331 -10.041  -2.270  1.00  0.00    -0.000 C 
BRANCH  20  21
ATOM     21  C   UNL     1      11.564 -10.538  -3.497  1.00  0.00    -0.003 C 
ATOM     22  C   UNL     1      11.064  -9.379  -4.346  1.00  0.00     0.004 C 
ENDBRANCH  20  21
ENDBRANCH  19  20
ENDBRANCH  18  19
ENDBRANCH  17  18
ENDBRANCH  16  17
ENDBRANCH  12  16
ENDBRANCH   9  12
ENDBRANCH   6   9
ENDBRANCH   3   5
ENDBRANCH   2   3
BRANCH   2  23
ATOM     23  N   UNL     1      10.633  -4.027  -0.237  1.00  0.00    -0.332 N 
ATOM     24  C   UNL     1      11.018  -5.325  -0.771  1.00  0.00     0.147 C 
BRANCH  23  25
ATOM     25  C   UNL     1       9.632  -3.286  -1.053  1.00  0.00     0.174 C 
BRANCH  25  26
ATOM     26  C   UNL     1       8.175  -3.703  -0.743  1.00  0.00     0.038 C 
BRANCH  26  27
ATOM     27  C   UNL     1       7.426  -2.885   0.332  1.00  0.00    -0.015 C 
ATOM     28  C   UNL     1       6.801  -1.609  -0.233  1.00  0.00     0.007 C 
ATOM     29  C   UNL     1       6.386  -3.697   1.100  1.00  0.00     0.007 C 
ENDBRANCH  26  27
ENDBRANCH  25  26
BRANCH  25  30
ATOM     30  C   UNL     1       9.997  -3.373  -2.553  1.00  0.00     0.243 C 
ATOM     31  O   UNL     1      10.969  -2.782  -3.020  1.00  0.00    -0.273 OA
ATOM     32  N   UNL     1       9.166  -4.146  -3.322  1.00  0.00    -0.342 N 
ATOM     33  H   UNL     1       8.467  -4.717  -2.839  1.00  0.00     0.164 HD
BRANCH  32  34
ATOM     34  C   UNL     1       9.343  -4.322  -4.766  1.00  0.00     0.175 C 
BRANCH  34  35
ATOM     35  C   UNL     1       9.630  -5.789  -5.120  1.00  0.00     0.070 C 
BRANCH  35  36
ATOM     36  C   UNL     1       8.514  -6.720  -4.703  1.00  0.00    -0.045 A 
ATOM     37  C   UNL     1       7.755  -7.386  -5.677  1.00  0.00     0.007 A 
ATOM     38  C   UNL     1       8.207  -6.913  -3.350  1.00  0.00     0.007 A 
ATOM     39  C   UNL     1       6.715  -8.237  -5.303  1.00  0.00     0.046 A 
ATOM     40  C   UNL     1       7.164  -7.764  -2.974  1.00  0.00     0.046 A 
ATOM     41  C   UNL     1       6.428  -8.419  -3.955  1.00  0.00     0.115 A 
BRANCH  41  42
ATOM     42  O   UNL     1       5.401  -9.256  -3.632  1.00  0.00    -0.508 OA
ATOM     43  H   UNL     1       5.151  -9.754  -4.428  1.00  0.00     0.293 HD
ENDBRANCH  41  42
ENDBRANCH  35  36
ENDBRANCH  34  35
BRANCH  34  44
ATOM     44  C   UNL     1       8.073  -3.796  -5.472  1.00  0.00     0.243 C 
ATOM     45  O   UNL     1       7.808  -3.985  -6.655  1.00  0.00    -0.273 OA
ATOM     46  N   UNL     1       7.307  -2.968  -4.678  1.00  0.00    -0.341 N 
ATOM     47  H   UNL     1       7.629  -2.747  -3.739  1.00  0.00     0.164 HD
BRANCH  46  48
ATOM     48  C   UNL     1       6.093  -2.297  -5.149  1.00  0.00     0.196 C 
BRANCH  48  49
ATOM     49  C   UNL     1       5.024  -2.235  -4.045  1.00  0.00     0.072 C 
BRANCH  49  50
ATOM     50  C   UNL     1       4.657  -3.601  -3.513  1.00  0.00    -0.045 A 
ATOM     51  C   UNL     1       4.553  -3.808  -2.130  1.00  0.00     0.007 A 
ATOM     52  C   UNL     1       4.437  -4.678  -4.381  1.00  0.00     0.007 A 
ATOM     53  C   UNL     1       4.228  -5.068  -1.626  1.00  0.00     0.046 A 
ATOM     54  C   UNL     1       4.113  -5.940  -3.877  1.00  0.00     0.046 A 
ATOM     55  C   UNL     1       4.010  -6.123  -2.503  1.00  0.00     0.115 A 
BRANCH  55  56
ATOM     56  O   UNL     1       3.697  -7.339  -1.970  1.00  0.00    -0.508 OA
ATOM     57  H   UNL     1       4.259  -8.010  -2.389  1.00  0.00     0.293 HD
ENDBRANCH  55  56
ENDBRANCH  49  50
ENDBRANCH  48  49
BRANCH  48  58
ATOM     58  C   UNL     1       6.452  -0.874  -5.598  1.00  0.00     0.326 C 
ATOM     59  O   UNL     1       7.539  -0.325  -5.515  1.00  0.00    -0.250 OA
BRANCH  58  60
ATOM     60  O   UNL     1       5.412  -0.203  -6.155  1.00  0.00    -0.480 OA
ATOM     61  H   UNL     1       4.770  -0.916  -6.364  1.00  0.00     0.296 HD
ENDBRANCH  58  60
ENDBRANCH  48  58
ENDBRANCH  46  48
ENDBRANCH  34  44
ENDBRANCH  32  34
ENDBRANCH  25  30
ENDBRANCH  23  25
ENDBRANCH   2  23
TORSDOF 28
ENDMDL
MODEL 4
REMARK VINA RESULT:    -4.831      2.472      5.014
REMARK INTER + INTRA:         -19.256
REMARK INTER:                 -12.777
REMARK INTRA:                  -6.479
REMARK UNBOUND:                -7.224
REMARK SMILES CCCCCCC[C@H](N)[C@H](O)C(=O)N[C@H](C)C(=O)N(C)[C@H](CC(C)C)C(=O)N[C@@H](Cc1ccc(O)cc1)C(=O)N[C@@H](Cc1ccc(O)cc1)C(=O)O
REMARK SMILES IDX 18 1 17 2 15 3 16 4 14 5 12 6 13 7 10 9 11 10 8 12 9 13 7 16
REMARK SMILES IDX 6 17 5 18 4 19 3 20 2 21 1 22 19 23 20 24 21 25 22 26 23 27
REMARK SMILES IDX 24 28 25 29 26 30 27 31 28 32 29 34 30 35 31 36 32 37 37 38
REMARK SMILES IDX 33 39 36 40 34 41 35 42 38 44 39 45 40 46 41 48 42 49 43 50
REMARK SMILES IDX 44 51 49 52 45 53 48 54 46 55 47 56 50 58 51 59 52 60
REMARK H PARENT 14 8 11 11 9 14 9 15 28 33 35 43 40 47 47 57 52 61
ROOT
ATOM      1  O   UNL     1       9.182  -6.687   2.561  1.00  0.00    -0.272 OA
ATOM      2  C   UNL     1      10.143  -7.049   1.866  1.00  0.00     0.245 C 
ENDROOT
BRANCH   2   3
ATOM      3  C   UNL     1      11.510  -6.350   2.070  1.00  0.00     0.168 C 
ATOM      4  C   UNL     1      12.476  -6.710   0.946  1.00  0.00     0.041 C 
BRANCH   3   5
ATOM      5  N   UNL     1      11.436  -4.913   2.282  1.00  0.00    -0.342 N 
ATOM      6  C   UNL     1      12.378  -4.237   3.029  1.00  0.00     0.251 C 
ATOM      7  O   UNL     1      13.313  -4.790   3.599  1.00  0.00    -0.272 OA
ATOM      8  H   UNL     1      10.685  -4.350   1.888  1.00  0.00     0.164 HD
BRANCH   6   9
ATOM      9  C   UNL     1      12.180  -2.713   2.998  1.00  0.00     0.219 C 
BRANCH   9  10
ATOM     10  O   UNL     1      11.945  -2.160   4.299  1.00  0.00    -0.382 OA
ATOM     11  H   UNL     1      11.696  -2.941   4.840  1.00  0.00     0.211 HD
ENDBRANCH   9  10
BRANCH   9  12
ATOM     12  C   UNL     1      13.333  -1.963   2.281  1.00  0.00     0.089 C 
BRANCH  12  13
ATOM     13  N   UNL     1      14.129  -2.951   1.517  1.00  0.00    -0.325 NA
ATOM     14  H   UNL     1      13.925  -3.889   1.868  1.00  0.00     0.119 HD
ATOM     15  H   UNL     1      15.121  -2.802   1.716  1.00  0.00     0.119 HD
ENDBRANCH  12  13
BRANCH  12  16
ATOM     16  C   UNL     1      12.911  -0.794   1.360  1.00  0.00     0.022 C 
BRANCH  16  17
ATOM     17  C   UNL     1      11.587  -0.890   0.589  1.00  0.00     0.002 C 
BRANCH  17  18
ATOM     18  C   UNL     1      11.693  -1.516  -0.799  1.00  0.00     0.000 C 
BRANCH  18  19
ATOM     19  C   UNL     1      11.360  -3.013  -0.837  1.00  0.00    -0.000 C 
BRANCH  19  20
ATOM     20  C   UNL     1      10.823  -3.527  -2.176  1.00  0.00    -0.000 C 
BRANCH  20  21
ATOM     21  C   UNL     1       9.489  -2.888  -2.571  1.00  0.00    -0.003 C 
ATOM     22  C   UNL     1       8.499  -3.932  -3.064  1.00  0.00     0.004 C 
ENDBRANCH  20  21
ENDBRANCH  19  20
ENDBRANCH  18  19
ENDBRANCH  17  18
ENDBRANCH  16  17
ENDBRANCH  12  16
ENDBRANCH   9  12
ENDBRANCH   6   9
ENDBRANCH   3   5
ENDBRANCH   2   3
BRANCH   2  23
ATOM     23  N   UNL     1      10.013  -8.141   1.014  1.00  0.00    -0.332 N 
ATOM     24  C   UNL     1      10.399  -9.502   1.352  1.00  0.00     0.147 C 
BRANCH  23  25
ATOM     25  C   UNL     1       9.328  -7.991  -0.300  1.00  0.00     0.174 C 
BRANCH  25  26
ATOM     26  C   UNL     1      10.025  -6.970  -1.229  1.00  0.00     0.038 C 
BRANCH  26  27
ATOM     27  C   UNL     1      10.598  -7.511  -2.559  1.00  0.00    -0.015 C 
ATOM     28  C   UNL     1      11.189  -8.913  -2.413  1.00  0.00     0.007 C 
ATOM     29  C   UNL     1       9.600  -7.466  -3.713  1.00  0.00     0.007 C 
ENDBRANCH  26  27
ENDBRANCH  25  26
BRANCH  25  30
ATOM     30  C   UNL     1       7.823  -7.711  -0.086  1.00  0.00     0.243 C 
ATOM     31  O   UNL     1       7.103  -8.480   0.549  1.00  0.00    -0.273 OA
ATOM     32  N   UNL     1       7.348  -6.557  -0.654  1.00  0.00    -0.342 N 
ATOM     33  H   UNL     1       8.033  -5.904  -1.042  1.00  0.00     0.164 HD
BRANCH  32  34
ATOM     34  C   UNL     1       5.944  -6.145  -0.578  1.00  0.00     0.175 C 
BRANCH  34  35
ATOM     35  C   UNL     1       5.818  -4.638  -0.305  1.00  0.00     0.070 C 
BRANCH  35  36
ATOM     36  C   UNL     1       6.676  -4.180   0.852  1.00  0.00    -0.045 A 
ATOM     37  C   UNL     1       6.287  -4.463   2.170  1.00  0.00     0.007 A 
ATOM     38  C   UNL     1       7.852  -3.451   0.631  1.00  0.00     0.007 A 
ATOM     39  C   UNL     1       7.065  -4.032   3.245  1.00  0.00     0.046 A 
ATOM     40  C   UNL     1       8.631  -3.018   1.707  1.00  0.00     0.046 A 
ATOM     41  C   UNL     1       8.230  -3.314   3.005  1.00  0.00     0.115 A 
BRANCH  41  42
ATOM     42  O   UNL     1       8.960  -2.909   4.083  1.00  0.00    -0.508 OA
ATOM     43  H   UNL     1       8.441  -2.248   4.571  1.00  0.00     0.293 HD
ENDBRANCH  41  42
ENDBRANCH  35  36
ENDBRANCH  34  35
BRANCH  34  44
ATOM     44  C   UNL     1       5.252  -6.553  -1.898  1.00  0.00     0.243 C 
ATOM     45  O   UNL     1       4.124  -7.032  -1.971  1.00  0.00    -0.273 OA
ATOM     46  N   UNL     1       6.073  -6.452  -3.001  1.00  0.00    -0.341 N 
ATOM     47  H   UNL     1       7.039  -6.160  -2.873  1.00  0.00     0.164 HD
BRANCH  46  48
ATOM     48  C   UNL     1       5.662  -6.846  -4.351  1.00  0.00     0.196 C 
BRANCH  48  49
ATOM     49  C   UNL     1       6.361  -5.991  -5.421  1.00  0.00     0.072 C 
BRANCH  49  50
ATOM     50  C   UNL     1       5.789  -4.595  -5.516  1.00  0.00    -0.045 A 
ATOM     51  C   UNL     1       6.483  -3.602  -6.223  1.00  0.00     0.007 A 
ATOM     52  C   UNL     1       4.581  -4.266  -4.887  1.00  0.00     0.007 A 
ATOM     53  C   UNL     1       5.972  -2.307  -6.306  1.00  0.00     0.046 A 
ATOM     54  C   UNL     1       4.070  -2.969  -4.969  1.00  0.00     0.046 A 
ATOM     55  C   UNL     1       4.770  -2.000  -5.679  1.00  0.00     0.115 A 
BRANCH  55  56
ATOM     56  O   UNL     1       4.306  -0.722  -5.783  1.00  0.00    -0.508 OA
ATOM     57  H   UNL     1       3.812  -0.642  -6.614  1.00  0.00     0.293 HD
ENDBRANCH  55  56
ENDBRANCH  49  50
ENDBRANCH  48  49
BRANCH  48  58
ATOM     58  C   UNL     1       6.008  -8.326  -4.566  1.00  0.00     0.326 C 
ATOM     59  O   UNL     1       5.570  -9.284  -3.951  1.00  0.00    -0.250 OA
BRANCH  58  60
ATOM     60  O   UNL     1       6.893  -8.533  -5.573  1.00  0.00    -0.480 OA
ATOM     61  H   UNL     1       6.592  -9.381  -5.967  1.00  0.00     0.296 HD
ENDBRANCH  58  60
ENDBRANCH  48  58
ENDBRANCH  46  48
ENDBRANCH  34  44
ENDBRANCH  32  34
ENDBRANCH  25  30
ENDBRANCH  23  25
ENDBRANCH   2  23
TORSDOF 28
ENDMDL
MODEL 5
REMARK VINA RESULT:    -4.691      8.466     13.438
REMARK INTER + INTRA:         -18.908
REMARK INTER:                 -14.479
REMARK INTRA:                  -4.429
REMARK UNBOUND:                -7.224
REMARK SMILES CCCCCCC[C@H](N)[C@H](O)C(=O)N[C@H](C)C(=O)N(C)[C@H](CC(C)C)C(=O)N[C@@H](Cc1ccc(O)cc1)C(=O)N[C@@H](Cc1ccc(O)cc1)C(=O)O
REMARK SMILES IDX 18 1 17 2 15 3 16 4 14 5 12 6 13 7 10 9 11 10 8 12 9 13 7 16
REMARK SMILES IDX 6 17 5 18 4 19 3 20 2 21 1 22 19 23 20 24 21 25 22 26 23 27
REMARK SMILES IDX 24 28 25 29 26 30 27 31 28 32 29 34 30 35 31 36 32 37 37 38
REMARK SMILES IDX 33 39 36 40 34 41 35 42 38 44 39 45 40 46 41 48 42 49 43 50
REMARK SMILES IDX 44 51 49 52 45 53 48 54 46 55 47 56 50 58 51 59 52 60
REMARK H PARENT 14 8 11 11 9 14 9 15 28 33 35 43 40 47 47 57 52 61
ROOT
ATOM      1  O   UNL     1       2.198  -3.259  -9.801  1.00  0.00    -0.272 OA
ATOM      2  C   UNL     1       3.011  -2.352 -10.031  1.00  0.00     0.245 C 
ENDROOT
BRANCH   2   3
ATOM      3  C   UNL     1       3.802  -1.747  -8.845  1.00  0.00     0.168 C 
ATOM      4  C   UNL     1       2.924  -0.800  -8.035  1.00  0.00     0.041 C 
BRANCH   3   5
ATOM      5  N   UNL     1       4.474  -2.721  -7.998  1.00  0.00    -0.342 N 
ATOM      6  C   UNL     1       5.812  -2.615  -7.686  1.00  0.00     0.251 C 
ATOM      7  O   UNL     1       6.540  -1.730  -8.124  1.00  0.00    -0.272 OA
ATOM      8  H   UNL     1       3.981  -3.519  -7.604  1.00  0.00     0.164 HD
BRANCH   6   9
ATOM      9  C   UNL     1       6.271  -3.670  -6.667  1.00  0.00     0.219 C 
BRANCH   9  10
ATOM     10  O   UNL     1       7.673  -3.950  -6.755  1.00  0.00    -0.382 OA
ATOM     11  H   UNL     1       7.845  -3.968  -7.722  1.00  0.00     0.211 HD
ENDBRANCH   9  10
BRANCH   9  12
ATOM     12  C   UNL     1       5.869  -3.324  -5.210  1.00  0.00     0.089 C 
BRANCH  12  13
ATOM     13  N   UNL     1       5.598  -1.870  -5.132  1.00  0.00    -0.325 NA
ATOM     14  H   UNL     1       4.741  -1.660  -5.647  1.00  0.00     0.119 HD
ATOM     15  H   UNL     1       6.338  -1.368  -5.630  1.00  0.00     0.119 HD
ENDBRANCH  12  13
BRANCH  12  16
ATOM     16  C   UNL     1       4.675  -4.119  -4.628  1.00  0.00     0.022 C 
BRANCH  16  17
ATOM     17  C   UNL     1       4.705  -5.652  -4.677  1.00  0.00     0.002 C 
BRANCH  17  18
ATOM     18  C   UNL     1       4.929  -6.336  -3.330  1.00  0.00     0.000 C 
BRANCH  18  19
ATOM     19  C   UNL     1       5.626  -7.699  -3.430  1.00  0.00    -0.000 C 
BRANCH  19  20
ATOM     20  C   UNL     1       7.112  -7.645  -3.793  1.00  0.00    -0.000 C 
BRANCH  20  21
ATOM     21  C   UNL     1       7.439  -8.385  -5.093  1.00  0.00    -0.003 C 
ATOM     22  C   UNL     1       7.371  -7.453  -6.293  1.00  0.00     0.004 C 
ENDBRANCH  20  21
ENDBRANCH  19  20
ENDBRANCH  18  19
ENDBRANCH  17  18
ENDBRANCH  16  17
ENDBRANCH  12  16
ENDBRANCH   9  12
ENDBRANCH   6   9
ENDBRANCH   3   5
ENDBRANCH   2   3
BRANCH   2  23
ATOM     23  N   UNL     1       3.286  -1.981 -11.343  1.00  0.00    -0.332 N 
ATOM     24  C   UNL     1       2.363  -2.140 -12.457  1.00  0.00     0.147 C 
BRANCH  23  25
ATOM     25  C   UNL     1       4.544  -1.256 -11.670  1.00  0.00     0.174 C 
BRANCH  25  26
ATOM     26  C   UNL     1       4.319   0.251 -11.937  1.00  0.00     0.038 C 
BRANCH  26  27
ATOM     27  C   UNL     1       5.288   1.237 -11.247  1.00  0.00    -0.015 C 
ATOM     28  C   UNL     1       5.954   2.192 -12.237  1.00  0.00     0.007 C 
ATOM     29  C   UNL     1       4.647   2.014 -10.099  1.00  0.00     0.007 C 
ENDBRANCH  26  27
ENDBRANCH  25  26
BRANCH  25  30
ATOM     30  C   UNL     1       5.297  -1.983 -12.808  1.00  0.00     0.243 C 
ATOM     31  O   UNL     1       5.412  -3.207 -12.833  1.00  0.00    -0.273 OA
ATOM     32  N   UNL     1       5.829  -1.174 -13.779  1.00  0.00    -0.342 N 
ATOM     33  H   UNL     1       5.571  -0.184 -13.765  1.00  0.00     0.164 HD
BRANCH  32  34
ATOM     34  C   UNL     1       6.597  -1.686 -14.917  1.00  0.00     0.175 C 
BRANCH  34  35
ATOM     35  C   UNL     1       5.801  -1.570 -16.226  1.00  0.00     0.070 C 
BRANCH  35  36
ATOM     36  C   UNL     1       4.497  -0.824 -16.053  1.00  0.00    -0.045 A 
ATOM     37  C   UNL     1       3.279  -1.469 -16.318  1.00  0.00     0.007 A 
ATOM     38  C   UNL     1       4.485   0.518 -15.653  1.00  0.00     0.007 A 
ATOM     39  C   UNL     1       2.072  -0.785 -16.175  1.00  0.00     0.046 A 
ATOM     40  C   UNL     1       3.276   1.205 -15.510  1.00  0.00     0.046 A 
ATOM     41  C   UNL     1       2.080   0.545 -15.772  1.00  0.00     0.115 A 
BRANCH  41  42
ATOM     42  O   UNL     1       0.879   1.179 -15.647  1.00  0.00    -0.508 OA
ATOM     43  H   UNL     1       0.542   1.020 -14.749  1.00  0.00     0.293 HD
ENDBRANCH  41  42
ENDBRANCH  35  36
ENDBRANCH  34  35
BRANCH  34  44
ATOM     44  C   UNL     1       7.932  -0.910 -14.983  1.00  0.00     0.243 C 
ATOM     45  O   UNL     1       8.020   0.313 -15.050  1.00  0.00    -0.273 OA
ATOM     46  N   UNL     1       9.037  -1.726 -15.092  1.00  0.00    -0.341 N 
ATOM     47  H   UNL     1       8.904  -2.733 -15.149  1.00  0.00     0.164 HD
BRANCH  46  48
ATOM     48  C   UNL     1      10.403  -1.218 -15.236  1.00  0.00     0.196 C 
BRANCH  48  49
ATOM     49  C   UNL     1      11.363  -1.902 -14.248  1.00  0.00     0.072 C 
BRANCH  49  50
ATOM     50  C   UNL     1      10.745  -2.102 -12.882  1.00  0.00    -0.045 A 
ATOM     51  C   UNL     1      10.583  -3.398 -12.371  1.00  0.00     0.007 A 
ATOM     52  C   UNL     1      10.311  -1.010 -12.120  1.00  0.00     0.007 A 
ATOM     53  C   UNL     1      10.003  -3.596 -11.118  1.00  0.00     0.046 A 
ATOM     54  C   UNL     1       9.729  -1.208 -10.866  1.00  0.00     0.046 A 
ATOM     55  C   UNL     1       9.581  -2.500 -10.375  1.00  0.00     0.115 A 
BRANCH  55  56
ATOM     56  O   UNL     1       9.017  -2.736  -9.156  1.00  0.00    -0.508 OA
ATOM     57  H   UNL     1       8.056  -2.807  -9.272  1.00  0.00     0.293 HD
ENDBRANCH  55  56
ENDBRANCH  49  50
ENDBRANCH  48  49
BRANCH  48  58
ATOM     58  C   UNL     1      10.880  -1.470 -16.673  1.00  0.00     0.326 C 
ATOM     59  O   UNL     1      10.457  -0.951 -17.694  1.00  0.00    -0.250 OA
BRANCH  58  60
ATOM     60  O   UNL     1      11.894  -2.367 -16.758  1.00  0.00    -0.480 OA
ATOM     61  H   UNL     1      11.706  -2.841 -17.597  1.00  0.00     0.296 HD
ENDBRANCH  58  60
ENDBRANCH  48  58
ENDBRANCH  46  48
ENDBRANCH  34  44
ENDBRANCH  32  34
ENDBRANCH  25  30
ENDBRANCH  23  25
ENDBRANCH   2  23
TORSDOF 28
ENDMDL
MODEL 6
REMARK VINA RESULT:    -4.684      3.495      9.182
REMARK INTER + INTRA:         -18.891
REMARK INTER:                 -12.550
REMARK INTRA:                  -6.341
REMARK UNBOUND:                -7.224
REMARK SMILES CCCCCCC[C@H](N)[C@H](O)C(=O)N[C@H](C)C(=O)N(C)[C@H](CC(C)C)C(=O)N[C@@H](Cc1ccc(O)cc1)C(=O)N[C@@H](Cc1ccc(O)cc1)C(=O)O
REMARK SMILES IDX 18 1 17 2 15 3 16 4 14 5 12 6 13 7 10 9 11 10 8 12 9 13 7 16
REMARK SMILES IDX 6 17 5 18 4 19 3 20 2 21 1 22 19 23 20 24 21 25 22 26 23 27
REMARK SMILES IDX 24 28 25 29 26 30 27 31 28 32 29 34 30 35 31 36 32 37 37 38
REMARK SMILES IDX 33 39 36 40 34 41 35 42 38 44 39 45 40 46 41 48 42 49 43 50
REMARK SMILES IDX 44 51 49 52 45 53 48 54 46 55 47 56 50 58 51 59 52 60
REMARK H PARENT 14 8 11 11 9 14 9 15 28 33 35 43 40 47 47 57 52 61
ROOT
ATOM      1  O   UNL     1       5.571  -3.390  -7.641  1.00  0.00    -0.272 OA
ATOM      2  C   UNL     1       5.801  -3.469  -6.426  1.00  0.00     0.245 C 
ENDROOT
BRANCH   2   3
ATOM      3  C   UNL     1       6.509  -4.736  -5.886  1.00  0.00     0.168 C 
ATOM      4  C   UNL     1       8.023  -4.557  -5.894  1.00  0.00     0.041 C 
BRANCH   3   5
ATOM      5  N   UNL     1       6.026  -5.204  -4.596  1.00  0.00    -0.342 N 
ATOM      6  C   UNL     1       4.902  -5.994  -4.482  1.00  0.00     0.251 C 
ATOM      7  O   UNL     1       4.209  -6.326  -5.438  1.00  0.00    -0.272 OA
ATOM      8  H   UNL     1       6.498  -4.964  -3.727  1.00  0.00     0.164 HD
BRANCH   6   9
ATOM      9  C   UNL     1       4.663  -6.484  -3.045  1.00  0.00     0.219 C 
BRANCH   9  10
ATOM     10  O   UNL     1       3.272  -6.659  -2.745  1.00  0.00    -0.382 OA
ATOM     11  H   UNL     1       3.112  -6.023  -2.013  1.00  0.00     0.211 HD
ENDBRANCH   9  10
BRANCH   9  12
ATOM     12  C   UNL     1       5.467  -7.764  -2.696  1.00  0.00     0.089 C 
BRANCH  12  13
ATOM     13  N   UNL     1       5.372  -8.701  -3.838  1.00  0.00    -0.325 NA
ATOM     14  H   UNL     1       6.311  -8.897  -4.190  1.00  0.00     0.119 HD
ATOM     15  H   UNL     1       4.890  -8.234  -4.610  1.00  0.00     0.119 HD
ENDBRANCH  12  13
BRANCH  12  16
ATOM     16  C   UNL     1       6.949  -7.548  -2.306  1.00  0.00     0.022 C 
BRANCH  16  17
ATOM     17  C   UNL     1       7.331  -7.502  -0.820  1.00  0.00     0.002 C 
BRANCH  17  18
ATOM     18  C   UNL     1       7.806  -6.140  -0.319  1.00  0.00     0.000 C 
BRANCH  18  19
ATOM     19  C   UNL     1       6.820  -5.443   0.628  1.00  0.00    -0.000 C 
BRANCH  19  20
ATOM     20  C   UNL     1       7.109  -5.630   2.120  1.00  0.00    -0.000 C 
BRANCH  20  21
ATOM     21  C   UNL     1       8.524  -6.146   2.397  1.00  0.00    -0.003 C 
ATOM     22  C   UNL     1       9.363  -5.103   3.119  1.00  0.00     0.004 C 
ENDBRANCH  20  21
ENDBRANCH  19  20
ENDBRANCH  18  19
ENDBRANCH  17  18
ENDBRANCH  16  17
ENDBRANCH  12  16
ENDBRANCH   9  12
ENDBRANCH   6   9
ENDBRANCH   3   5
ENDBRANCH   2   3
BRANCH   2  23
ATOM     23  N   UNL     1       5.538  -2.384  -5.596  1.00  0.00    -0.332 N 
ATOM     24  C   UNL     1       6.350  -1.178  -5.530  1.00  0.00     0.147 C 
BRANCH  23  25
ATOM     25  C   UNL     1       4.288  -2.342  -4.789  1.00  0.00     0.174 C 
BRANCH  25  26
ATOM     26  C   UNL     1       3.315  -1.228  -5.241  1.00  0.00     0.038 C 
BRANCH  26  27
ATOM     27  C   UNL     1       2.831  -1.274  -6.708  1.00  0.00    -0.015 C 
ATOM     28  C   UNL     1       1.768  -2.348  -6.939  1.00  0.00     0.007 C 
ATOM     29  C   UNL     1       2.353   0.077  -7.233  1.00  0.00     0.007 C 
ENDBRANCH  26  27
ENDBRANCH  25  26
BRANCH  25  30
ATOM     30  C   UNL     1       4.629  -2.295  -3.282  1.00  0.00     0.243 C 
ATOM     31  O   UNL     1       5.508  -3.002  -2.792  1.00  0.00    -0.273 OA
ATOM     32  N   UNL     1       3.885  -1.420  -2.532  1.00  0.00    -0.342 N 
ATOM     33  H   UNL     1       3.275  -0.768  -3.032  1.00  0.00     0.164 HD
BRANCH  32  34
ATOM     34  C   UNL     1       4.052  -1.261  -1.085  1.00  0.00     0.175 C 
BRANCH  34  35
ATOM     35  C   UNL     1       3.742  -2.569  -0.340  1.00  0.00     0.070 C 
BRANCH  35  36
ATOM     36  C   UNL     1       3.003  -2.342   0.959  1.00  0.00    -0.045 A 
ATOM     37  C   UNL     1       2.679  -1.038   1.363  1.00  0.00     0.007 A 
ATOM     38  C   UNL     1       2.652  -3.418   1.784  1.00  0.00     0.007 A 
ATOM     39  C   UNL     1       2.008  -0.817   2.566  1.00  0.00     0.046 A 
ATOM     40  C   UNL     1       1.982  -3.198   2.990  1.00  0.00     0.046 A 
ATOM     41  C   UNL     1       1.665  -1.897   3.369  1.00  0.00     0.115 A 
BRANCH  41  42
ATOM     42  O   UNL     1       1.014  -1.638   4.539  1.00  0.00    -0.508 OA
ATOM     43  H   UNL     1       1.389  -0.829   4.924  1.00  0.00     0.293 HD
ENDBRANCH  41  42
ENDBRANCH  35  36
ENDBRANCH  34  35
BRANCH  34  44
ATOM     44  C   UNL     1       5.494  -0.773  -0.819  1.00  0.00     0.243 C 
ATOM     45  O   UNL     1       5.971   0.262  -1.277  1.00  0.00    -0.273 OA
ATOM     46  N   UNL     1       6.259  -1.679  -0.116  1.00  0.00    -0.341 N 
ATOM     47  H   UNL     1       5.853  -2.575   0.140  1.00  0.00     0.164 HD
BRANCH  46  48
ATOM     48  C   UNL     1       7.674  -1.467   0.196  1.00  0.00     0.196 C 
BRANCH  48  49
ATOM     49  C   UNL     1       8.021  -1.982   1.603  1.00  0.00     0.072 C 
BRANCH  49  50
ATOM     50  C   UNL     1       7.012  -1.551   2.644  1.00  0.00    -0.045 A 
ATOM     51  C   UNL     1       6.210  -2.511   3.279  1.00  0.00     0.007 A 
ATOM     52  C   UNL     1       6.847  -0.200   2.973  1.00  0.00     0.007 A 
ATOM     53  C   UNL     1       5.267  -2.125   4.232  1.00  0.00     0.046 A 
ATOM     54  C   UNL     1       5.902   0.187   3.926  1.00  0.00     0.046 A 
ATOM     55  C   UNL     1       5.120  -0.780   4.548  1.00  0.00     0.115 A 
BRANCH  55  56
ATOM     56  O   UNL     1       4.186  -0.444   5.482  1.00  0.00    -0.508 OA
ATOM     57  H   UNL     1       3.938  -1.246   5.969  1.00  0.00     0.293 HD
ENDBRANCH  55  56
ENDBRANCH  49  50
ENDBRANCH  48  49
BRANCH  48  58
ATOM     58  C   UNL     1       8.531  -2.202  -0.846  1.00  0.00     0.326 C 
ATOM     59  O   UNL     1       9.410  -3.021  -0.634  1.00  0.00    -0.250 OA
BRANCH  58  60
ATOM     60  O   UNL     1       8.224  -1.875  -2.126  1.00  0.00    -0.480 OA
ATOM     61  H   UNL     1       8.690  -2.560  -2.652  1.00  0.00     0.296 HD
ENDBRANCH  58  60
ENDBRANCH  48  58
ENDBRANCH  46  48
ENDBRANCH  34  44
ENDBRANCH  32  34
ENDBRANCH  25  30
ENDBRANCH  23  25
ENDBRANCH   2  23
TORSDOF 28
ENDMDL
MODEL 7
REMARK VINA RESULT:    -4.672      8.481     13.421
REMARK INTER + INTRA:         -18.861
REMARK INTER:                 -14.792
REMARK INTRA:                  -4.069
REMARK UNBOUND:                -7.224
REMARK SMILES CCCCCCC[C@H](N)[C@H](O)C(=O)N[C@H](C)C(=O)N(C)[C@H](CC(C)C)C(=O)N[C@@H](Cc1ccc(O)cc1)C(=O)N[C@@H](Cc1ccc(O)cc1)C(=O)O
REMARK SMILES IDX 18 1 17 2 15 3 16 4 14 5 12 6 13 7 10 9 11 10 8 12 9 13 7 16
REMARK SMILES IDX 6 17 5 18 4 19 3 20 2 21 1 22 19 23 20 24 21 25 22 26 23 27
REMARK SMILES IDX 24 28 25 29 26 30 27 31 28 32 29 34 30 35 31 36 32 37 37 38
REMARK SMILES IDX 33 39 36 40 34 41 35 42 38 44 39 45 40 46 41 48 42 49 43 50
REMARK SMILES IDX 44 51 49 52 45 53 48 54 46 55 47 56 50 58 51 59 52 60
REMARK H PARENT 14 8 11 11 9 14 9 15 28 33 35 43 40 47 47 57 52 61
ROOT
ATOM      1  O   UNL     1       6.645  -2.906 -10.167  1.00  0.00    -0.272 OA
ATOM      2  C   UNL     1       5.524  -2.483  -9.847  1.00  0.00     0.245 C 
ENDROOT
BRANCH   2   3
ATOM      3  C   UNL     1       5.291  -2.032  -8.384  1.00  0.00     0.168 C 
ATOM      4  C   UNL     1       4.101  -1.083  -8.292  1.00  0.00     0.041 C 
BRANCH   3   5
ATOM      5  N   UNL     1       5.197  -3.115  -7.417  1.00  0.00    -0.342 N 
ATOM      6  C   UNL     1       6.311  -3.628  -6.787  1.00  0.00     0.251 C 
ATOM      7  O   UNL     1       7.454  -3.248  -7.018  1.00  0.00    -0.272 OA
ATOM      8  H   UNL     1       4.304  -3.537  -7.170  1.00  0.00     0.164 HD
BRANCH   6   9
ATOM      9  C   UNL     1       5.959  -4.663  -5.707  1.00  0.00     0.219 C 
BRANCH   9  10
ATOM     10  O   UNL     1       4.577  -4.620  -5.329  1.00  0.00    -0.382 OA
ATOM     11  H   UNL     1       4.482  -3.740  -4.903  1.00  0.00     0.211 HD
ENDBRANCH   9  10
BRANCH   9  12
ATOM     12  C   UNL     1       6.381  -6.107  -6.086  1.00  0.00     0.089 C 
BRANCH  12  13
ATOM     13  N   UNL     1       7.821  -6.096  -6.434  1.00  0.00    -0.325 NA
ATOM     14  H   UNL     1       8.087  -5.156  -6.732  1.00  0.00     0.119 HD
ATOM     15  H   UNL     1       7.967  -6.688  -7.254  1.00  0.00     0.119 HD
ENDBRANCH  12  13
BRANCH  12  16
ATOM     16  C   UNL     1       6.099  -7.197  -5.024  1.00  0.00     0.022 C 
BRANCH  16  17
ATOM     17  C   UNL     1       7.279  -7.843  -4.285  1.00  0.00     0.002 C 
BRANCH  17  18
ATOM     18  C   UNL     1       7.399  -7.468  -2.810  1.00  0.00     0.000 C 
BRANCH  18  19
ATOM     19  C   UNL     1       7.316  -5.960  -2.540  1.00  0.00    -0.000 C 
BRANCH  19  20
ATOM     20  C   UNL     1       6.189  -5.529  -1.597  1.00  0.00    -0.000 C 
BRANCH  20  21
ATOM     21  C   UNL     1       5.077  -6.575  -1.475  1.00  0.00    -0.003 C 
ATOM     22  C   UNL     1       3.828  -6.146  -2.229  1.00  0.00     0.004 C 
ENDBRANCH  20  21
ENDBRANCH  19  20
ENDBRANCH  18  19
ENDBRANCH  17  18
ENDBRANCH  16  17
ENDBRANCH  12  16
ENDBRANCH   9  12
ENDBRANCH   6   9
ENDBRANCH   3   5
ENDBRANCH   2   3
BRANCH   2  23
ATOM     23  N   UNL     1       4.543  -2.308 -10.818  1.00  0.00    -0.332 N 
ATOM     24  C   UNL     1       3.249  -2.973 -10.814  1.00  0.00     0.147 C 
BRANCH  23  25
ATOM     25  C   UNL     1       4.723  -1.293 -11.892  1.00  0.00     0.174 C 
BRANCH  25  26
ATOM     26  C   UNL     1       3.409  -0.562 -12.256  1.00  0.00     0.038 C 
BRANCH  26  27
ATOM     27  C   UNL     1       3.081   0.723 -11.464  1.00  0.00    -0.015 C 
ATOM     28  C   UNL     1       4.337   1.481 -11.034  1.00  0.00     0.007 C 
ATOM     29  C   UNL     1       2.114   1.654 -12.190  1.00  0.00     0.007 C 
ENDBRANCH  26  27
ENDBRANCH  25  26
BRANCH  25  30
ATOM     30  C   UNL     1       5.439  -1.926 -13.108  1.00  0.00     0.243 C 
ATOM     31  O   UNL     1       5.483  -3.144 -13.275  1.00  0.00    -0.273 OA
ATOM     32  N   UNL     1       6.024  -1.042 -13.978  1.00  0.00    -0.342 N 
ATOM     33  H   UNL     1       5.824  -0.047 -13.848  1.00  0.00     0.164 HD
BRANCH  32  34
ATOM     34  C   UNL     1       6.768  -1.463 -15.168  1.00  0.00     0.175 C 
BRANCH  34  35
ATOM     35  C   UNL     1       5.938  -1.263 -16.446  1.00  0.00     0.070 C 
BRANCH  35  36
ATOM     36  C   UNL     1       4.601  -0.610 -16.178  1.00  0.00    -0.045 A 
ATOM     37  C   UNL     1       3.414  -1.326 -16.396  1.00  0.00     0.007 A 
ATOM     38  C   UNL     1       4.525   0.717 -15.734  1.00  0.00     0.007 A 
ATOM     39  C   UNL     1       2.175  -0.727 -16.165  1.00  0.00     0.046 A 
ATOM     40  C   UNL     1       3.284   1.317 -15.503  1.00  0.00     0.046 A 
ATOM     41  C   UNL     1       2.120   0.588 -15.720  1.00  0.00     0.115 A 
BRANCH  41  42
ATOM     42  O   UNL     1       0.890   1.137 -15.509  1.00  0.00    -0.508 OA
ATOM     43  H   UNL     1       0.612   0.923 -14.603  1.00  0.00     0.293 HD
ENDBRANCH  41  42
ENDBRANCH  35  36
ENDBRANCH  34  35
BRANCH  34  44
ATOM     44  C   UNL     1       8.093  -0.668 -15.210  1.00  0.00     0.243 C 
ATOM     45  O   UNL     1       8.176   0.528 -15.473  1.00  0.00    -0.273 OA
ATOM     46  N   UNL     1       9.212  -1.458 -15.052  1.00  0.00    -0.341 N 
ATOM     47  H   UNL     1       9.096  -2.464 -14.954  1.00  0.00     0.164 HD
BRANCH  46  48
ATOM     48  C   UNL     1      10.580  -0.940 -15.122  1.00  0.00     0.196 C 
BRANCH  48  49
ATOM     49  C   UNL     1      11.534  -1.758 -14.237  1.00  0.00     0.072 C 
BRANCH  49  50
ATOM     50  C   UNL     1      10.943  -2.075 -12.881  1.00  0.00    -0.045 A 
ATOM     51  C   UNL     1      10.669  -1.037 -11.979  1.00  0.00     0.007 A 
ATOM     52  C   UNL     1      10.681  -3.397 -12.500  1.00  0.00     0.007 A 
ATOM     53  C   UNL     1      10.136  -1.318 -10.721  1.00  0.00     0.046 A 
ATOM     54  C   UNL     1      10.148  -3.678 -11.240  1.00  0.00     0.046 A 
ATOM     55  C   UNL     1       9.879  -2.635 -10.361  1.00  0.00     0.115 A 
BRANCH  55  56
ATOM     56  O   UNL     1       9.360  -2.868  -9.122  1.00  0.00    -0.508 OA
ATOM     57  H   UNL     1       8.809  -2.108  -8.874  1.00  0.00     0.293 HD
ENDBRANCH  55  56
ENDBRANCH  49  50
ENDBRANCH  48  49
BRANCH  48  58
ATOM     58  C   UNL     1      11.059  -0.992 -16.580  1.00  0.00     0.326 C 
ATOM     59  O   UNL     1      11.335  -0.047 -17.301  1.00  0.00    -0.250 OA
BRANCH  58  60
ATOM     60  O   UNL     1      11.183  -2.253 -17.064  1.00  0.00    -0.480 OA
ATOM     61  H   UNL     1      11.730  -2.703 -16.384  1.00  0.00     0.296 HD
ENDBRANCH  58  60
ENDBRANCH  48  58
ENDBRANCH  46  48
ENDBRANCH  34  44
ENDBRANCH  32  34
ENDBRANCH  25  30
ENDBRANCH  23  25
ENDBRANCH   2  23
TORSDOF 28
ENDMDL
MODEL 8
REMARK VINA RESULT:    -4.664     10.743     14.811
REMARK INTER + INTRA:         -18.841
REMARK INTER:                 -13.007
REMARK INTRA:                  -5.835
REMARK UNBOUND:                -7.224
REMARK SMILES CCCCCCC[C@H](N)[C@H](O)C(=O)N[C@H](C)C(=O)N(C)[C@H](CC(C)C)C(=O)N[C@@H](Cc1ccc(O)cc1)C(=O)N[C@@H](Cc1ccc(O)cc1)C(=O)O
REMARK SMILES IDX 18 1 17 2 15 3 16 4 14 5 12 6 13 7 10 9 11 10 8 12 9 13 7 16
REMARK SMILES IDX 6 17 5 18 4 19 3 20 2 21 1 22 19 23 20 24 21 25 22 26 23 27
REMARK SMILES IDX 24 28 25 29 26 30 27 31 28 32 29 34 30 35 31 36 32 37 37 38
REMARK SMILES IDX 33 39 36 40 34 41 35 42 38 44 39 45 40 46 41 48 42 49 43 50
REMARK SMILES IDX 44 51 49 52 45 53 48 54 46 55 47 56 50 58 51 59 52 60
REMARK H PARENT 14 8 11 11 9 14 9 15 28 33 35 43 40 47 47 57 52 61
ROOT
ATOM      1  O   UNL     1      11.924  -1.462 -10.148  1.00  0.00    -0.272 OA
ATOM      2  C   UNL     1      12.059  -1.678 -11.361  1.00  0.00     0.245 C 
ENDROOT
BRANCH   2   3
ATOM      3  C   UNL     1      11.085  -2.665 -12.051  1.00  0.00     0.168 C 
ATOM      4  C   UNL     1      11.329  -4.092 -11.571  1.00  0.00     0.041 C 
BRANCH   3   5
ATOM      5  N   UNL     1       9.680  -2.297 -11.966  1.00  0.00    -0.342 N 
ATOM      6  C   UNL     1       8.905  -2.632 -10.875  1.00  0.00     0.251 C 
ATOM      7  O   UNL     1       9.320  -3.290  -9.927  1.00  0.00    -0.272 OA
ATOM      8  H   UNL     1       9.216  -1.780 -12.708  1.00  0.00     0.164 HD
BRANCH   6   9
ATOM      9  C   UNL     1       7.497  -2.019 -10.937  1.00  0.00     0.219 C 
BRANCH   9  10
ATOM     10  O   UNL     1       6.482  -2.920 -10.479  1.00  0.00    -0.382 OA
ATOM     11  H   UNL     1       6.602  -3.712 -11.048  1.00  0.00     0.211 HD
ENDBRANCH   9  10
BRANCH   9  12
ATOM     12  C   UNL     1       7.394  -0.655 -10.205  1.00  0.00     0.089 C 
BRANCH  12  13
ATOM     13  N   UNL     1       8.367   0.278 -10.817  1.00  0.00    -0.325 NA
ATOM     14  H   UNL     1       8.035   1.237 -10.694  1.00  0.00     0.119 HD
ATOM     15  H   UNL     1       8.379   0.128 -11.828  1.00  0.00     0.119 HD
ENDBRANCH  12  13
BRANCH  12  16
ATOM     16  C   UNL     1       5.988  -0.010 -10.169  1.00  0.00     0.022 C 
BRANCH  16  17
ATOM     17  C   UNL     1       5.746   1.296 -10.938  1.00  0.00     0.002 C 
BRANCH  17  18
ATOM     18  C   UNL     1       4.498   1.304 -11.819  1.00  0.00     0.000 C 
BRANCH  18  19
ATOM     19  C   UNL     1       3.374   0.387 -11.318  1.00  0.00    -0.000 C 
BRANCH  19  20
ATOM     20  C   UNL     1       2.888  -0.656 -12.328  1.00  0.00    -0.000 C 
BRANCH  20  21
ATOM     21  C   UNL     1       3.650  -1.981 -12.235  1.00  0.00    -0.003 C 
ATOM     22  C   UNL     1       3.000  -2.925 -11.235  1.00  0.00     0.004 C 
ENDBRANCH  20  21
ENDBRANCH  19  20
ENDBRANCH  18  19
ENDBRANCH  17  18
ENDBRANCH  16  17
ENDBRANCH  12  16
ENDBRANCH   9  12
ENDBRANCH   6   9
ENDBRANCH   3   5
ENDBRANCH   2   3
BRANCH   2  23
ATOM     23  N   UNL     1      12.989  -0.952 -12.097  1.00  0.00    -0.332 N 
ATOM     24  C   UNL     1      14.209  -0.377 -11.550  1.00  0.00     0.147 C 
BRANCH  23  25
ATOM     25  C   UNL     1      12.844  -0.825 -13.573  1.00  0.00     0.174 C 
BRANCH  25  26
ATOM     26  C   UNL     1      14.201  -0.665 -14.300  1.00  0.00     0.038 C 
BRANCH  26  27
ATOM     27  C   UNL     1      14.338  -1.342 -15.682  1.00  0.00    -0.015 C 
ATOM     28  C   UNL     1      13.462  -2.588 -15.812  1.00  0.00     0.007 C 
ATOM     29  C   UNL     1      14.097  -0.391 -16.851  1.00  0.00     0.007 C 
ENDBRANCH  26  27
ENDBRANCH  25  26
BRANCH  25  30
ATOM     30  C   UNL     1      11.822   0.284 -13.914  1.00  0.00     0.243 C 
ATOM     31  O   UNL     1      11.993   1.453 -13.572  1.00  0.00    -0.273 OA
ATOM     32  N   UNL     1      10.716  -0.124 -14.614  1.00  0.00    -0.342 N 
ATOM     33  H   UNL     1      10.715  -1.078 -14.984  1.00  0.00     0.164 HD
BRANCH  32  34
ATOM     34  C   UNL     1       9.632   0.783 -15.000  1.00  0.00     0.175 C 
BRANCH  34  35
ATOM     35  C   UNL     1       9.690   1.118 -16.498  1.00  0.00     0.070 C 
BRANCH  35  36
ATOM     36  C   UNL     1       8.706   2.196 -16.895  1.00  0.00    -0.045 A 
ATOM     37  C   UNL     1       8.983   3.540 -16.602  1.00  0.00     0.007 A 
ATOM     38  C   UNL     1       7.503   1.872 -17.535  1.00  0.00     0.007 A 
ATOM     39  C   UNL     1       8.075   4.541 -16.952  1.00  0.00     0.046 A 
ATOM     40  C   UNL     1       6.593   2.872 -17.884  1.00  0.00     0.046 A 
ATOM     41  C   UNL     1       6.889   4.199 -17.590  1.00  0.00     0.115 A 
BRANCH  41  42
ATOM     42  O   UNL     1       6.028   5.206 -17.912  1.00  0.00    -0.508 OA
ATOM     43  H   UNL     1       5.145   4.970 -17.581  1.00  0.00     0.293 HD
ENDBRANCH  41  42
ENDBRANCH  35  36
ENDBRANCH  34  35
BRANCH  34  44
ATOM     44  C   UNL     1       8.292   0.122 -14.607  1.00  0.00     0.243 C 
ATOM     45  O   UNL     1       7.607   0.459 -13.646  1.00  0.00    -0.273 OA
ATOM     46  N   UNL     1       7.985  -0.988 -15.366  1.00  0.00    -0.341 N 
ATOM     47  H   UNL     1       8.643  -1.299 -16.076  1.00  0.00     0.164 HD
BRANCH  46  48
ATOM     48  C   UNL     1       6.801  -1.819 -15.136  1.00  0.00     0.196 C 
BRANCH  48  49
ATOM     49  C   UNL     1       5.878  -1.832 -16.366  1.00  0.00     0.072 C 
BRANCH  49  50
ATOM     50  C   UNL     1       4.623  -1.014 -16.161  1.00  0.00    -0.045 A 
ATOM     51  C   UNL     1       3.376  -1.545 -16.520  1.00  0.00     0.007 A 
ATOM     52  C   UNL     1       4.686   0.282 -15.634  1.00  0.00     0.007 A 
ATOM     53  C   UNL     1       2.213  -0.795 -16.347  1.00  0.00     0.046 A 
ATOM     54  C   UNL     1       3.521   1.034 -15.462  1.00  0.00     0.046 A 
ATOM     55  C   UNL     1       2.294   0.488 -15.820  1.00  0.00     0.115 A 
BRANCH  55  56
ATOM     56  O   UNL     1       1.134   1.189 -15.669  1.00  0.00    -0.508 OA
ATOM     57  H   UNL     1       0.804   1.428 -16.550  1.00  0.00     0.293 HD
ENDBRANCH  55  56
ENDBRANCH  49  50
ENDBRANCH  48  49
BRANCH  48  58
ATOM     58  C   UNL     1       7.251  -3.251 -14.815  1.00  0.00     0.326 C 
ATOM     59  O   UNL     1       6.551  -4.249 -14.751  1.00  0.00    -0.250 OA
BRANCH  58  60
ATOM     60  O   UNL     1       8.586  -3.364 -14.600  1.00  0.00    -0.480 OA
ATOM     61  H   UNL     1       8.734  -2.813 -13.801  1.00  0.00     0.296 HD
ENDBRANCH  58  60
ENDBRANCH  48  58
ENDBRANCH  46  48
ENDBRANCH  34  44
ENDBRANCH  32  34
ENDBRANCH  25  30
ENDBRANCH  23  25
ENDBRANCH   2  23
TORSDOF 28
ENDMDL
MODEL 9
REMARK VINA RESULT:    -4.664      8.202     11.865
REMARK INTER + INTRA:         -18.840
REMARK INTER:                 -15.493
REMARK INTRA:                  -3.347
REMARK UNBOUND:                -7.224
REMARK SMILES CCCCCCC[C@H](N)[C@H](O)C(=O)N[C@H](C)C(=O)N(C)[C@H](CC(C)C)C(=O)N[C@@H](Cc1ccc(O)cc1)C(=O)N[C@@H](Cc1ccc(O)cc1)C(=O)O
REMARK SMILES IDX 18 1 17 2 15 3 16 4 14 5 12 6 13 7 10 9 11 10 8 12 9 13 7 16
REMARK SMILES IDX 6 17 5 18 4 19 3 20 2 21 1 22 19 23 20 24 21 25 22 26 23 27
REMARK SMILES IDX 24 28 25 29 26 30 27 31 28 32 29 34 30 35 31 36 32 37 37 38
REMARK SMILES IDX 33 39 36 40 34 41 35 42 38 44 39 45 40 46 41 48 42 49 43 50
REMARK SMILES IDX 44 51 49 52 45 53 48 54 46 55 47 56 50 58 51 59 52 60
REMARK H PARENT 14 8 11 11 9 14 9 15 28 33 35 43 40 47 47 57 52 61
ROOT
ATOM      1  O   UNL     1       5.557  -3.640  -8.836  1.00  0.00    -0.272 OA
ATOM      2  C   UNL     1       5.389  -2.906  -7.851  1.00  0.00     0.245 C 
ENDROOT
BRANCH   2   3
ATOM      3  C   UNL     1       6.161  -3.228  -6.547  1.00  0.00     0.168 C 
ATOM      4  C   UNL     1       6.247  -1.998  -5.650  1.00  0.00     0.041 C 
BRANCH   3   5
ATOM      5  N   UNL     1       5.678  -4.394  -5.823  1.00  0.00    -0.342 N 
ATOM      6  C   UNL     1       6.306  -5.619  -5.913  1.00  0.00     0.251 C 
ATOM      7  O   UNL     1       7.278  -5.829  -6.631  1.00  0.00    -0.272 OA
ATOM      8  H   UNL     1       4.858  -4.351  -5.222  1.00  0.00     0.164 HD
BRANCH   6   9
ATOM      9  C   UNL     1       5.711  -6.664  -4.956  1.00  0.00     0.219 C 
BRANCH   9  10
ATOM     10  O   UNL     1       4.459  -7.186  -5.417  1.00  0.00    -0.382 OA
ATOM     11  H   UNL     1       4.279  -7.931  -4.803  1.00  0.00     0.211 HD
ENDBRANCH   9  10
BRANCH   9  12
ATOM     12  C   UNL     1       6.697  -7.813  -4.619  1.00  0.00     0.089 C 
BRANCH  12  13
ATOM     13  N   UNL     1       7.046  -8.512  -5.877  1.00  0.00    -0.325 NA
ATOM     14  H   UNL     1       7.649  -7.909  -6.440  1.00  0.00     0.119 HD
ATOM     15  H   UNL     1       6.197  -8.635  -6.434  1.00  0.00     0.119 HD
ENDBRANCH  12  13
BRANCH  12  16
ATOM     16  C   UNL     1       7.983  -7.402  -3.864  1.00  0.00     0.022 C 
BRANCH  16  17
ATOM     17  C   UNL     1       9.347  -7.639  -4.528  1.00  0.00     0.002 C 
BRANCH  17  18
ATOM     18  C   UNL     1      10.138  -8.821  -3.972  1.00  0.00     0.000 C 
BRANCH  18  19
ATOM     19  C   UNL     1      11.416  -8.420  -3.222  1.00  0.00    -0.000 C 
BRANCH  19  20
ATOM     20  C   UNL     1      12.493  -7.755  -4.083  1.00  0.00    -0.000 C 
BRANCH  20  21
ATOM     21  C   UNL     1      13.011  -8.662  -5.203  1.00  0.00    -0.003 C 
ATOM     22  C   UNL     1      13.822  -7.878  -6.222  1.00  0.00     0.004 C 
ENDBRANCH  20  21
ENDBRANCH  19  20
ENDBRANCH  18  19
ENDBRANCH  17  18
ENDBRANCH  16  17
ENDBRANCH  12  16
ENDBRANCH   9  12
ENDBRANCH   6   9
ENDBRANCH   3   5
ENDBRANCH   2   3
BRANCH   2  23
ATOM     23  N   UNL     1       4.619  -1.754  -7.965  1.00  0.00    -0.332 N 
ATOM     24  C   UNL     1       3.230  -1.644  -7.544  1.00  0.00     0.147 C 
BRANCH  23  25
ATOM     25  C   UNL     1       5.236  -0.481  -8.427  1.00  0.00     0.174 C 
BRANCH  25  26
ATOM     26  C   UNL     1       4.335   0.751  -8.177  1.00  0.00     0.038 C 
BRANCH  26  27
ATOM     27  C   UNL     1       3.759   1.462  -9.422  1.00  0.00    -0.015 C 
ATOM     28  C   UNL     1       2.232   1.412  -9.468  1.00  0.00     0.007 C 
ATOM     29  C   UNL     1       4.254   2.896  -9.587  1.00  0.00     0.007 C 
ENDBRANCH  26  27
ENDBRANCH  25  26
BRANCH  25  30
ATOM     30  C   UNL     1       5.706  -0.619  -9.894  1.00  0.00     0.243 C 
ATOM     31  O   UNL     1       6.768  -0.136 -10.284  1.00  0.00    -0.273 OA
ATOM     32  N   UNL     1       4.861  -1.308 -10.725  1.00  0.00    -0.342 N 
ATOM     33  H   UNL     1       4.072  -1.799 -10.297  1.00  0.00     0.164 HD
BRANCH  32  34
ATOM     34  C   UNL     1       5.130  -1.514 -12.151  1.00  0.00     0.175 C 
BRANCH  34  35
ATOM     35  C   UNL     1       5.737  -2.901 -12.410  1.00  0.00     0.070 C 
BRANCH  35  36
ATOM     36  C   UNL     1       6.695  -2.911 -13.580  1.00  0.00    -0.045 A 
ATOM     37  C   UNL     1       8.080  -2.916 -13.354  1.00  0.00     0.007 A 
ATOM     38  C   UNL     1       6.220  -2.893 -14.898  1.00  0.00     0.007 A 
ATOM     39  C   UNL     1       8.971  -2.911 -14.427  1.00  0.00     0.046 A 
ATOM     40  C   UNL     1       7.112  -2.887 -15.973  1.00  0.00     0.046 A 
ATOM     41  C   UNL     1       8.481  -2.897 -15.727  1.00  0.00     0.115 A 
BRANCH  41  42
ATOM     42  O   UNL     1       9.385  -2.890 -16.748  1.00  0.00    -0.508 OA
ATOM     43  H   UNL     1       9.148  -2.173 -17.360  1.00  0.00     0.293 HD
ENDBRANCH  41  42
ENDBRANCH  35  36
ENDBRANCH  34  35
BRANCH  34  44
ATOM     44  C   UNL     1       3.807  -1.309 -12.922  1.00  0.00     0.243 C 
ATOM     45  O   UNL     1       2.803  -2.001 -12.774  1.00  0.00    -0.273 OA
ATOM     46  N   UNL     1       3.889  -0.346 -13.905  1.00  0.00    -0.341 N 
ATOM     47  H   UNL     1       4.778   0.120 -14.068  1.00  0.00     0.164 HD
BRANCH  46  48
ATOM     48  C   UNL     1       2.784  -0.023 -14.811  1.00  0.00     0.196 C 
BRANCH  48  49
ATOM     49  C   UNL     1       2.823   1.454 -15.239  1.00  0.00     0.072 C 
BRANCH  49  50
ATOM     50  C   UNL     1       2.440   2.394 -14.119  1.00  0.00    -0.045 A 
ATOM     51  C   UNL     1       1.396   2.053 -13.246  1.00  0.00     0.007 A 
ATOM     52  C   UNL     1       3.098   3.619 -13.948  1.00  0.00     0.007 A 
ATOM     53  C   UNL     1       1.024   2.919 -12.217  1.00  0.00     0.046 A 
ATOM     54  C   UNL     1       2.725   4.486 -12.919  1.00  0.00     0.046 A 
ATOM     55  C   UNL     1       1.691   4.128 -12.061  1.00  0.00     0.115 A 
BRANCH  55  56
ATOM     56  O   UNL     1       1.296   4.947 -11.045  1.00  0.00    -0.508 OA
ATOM     57  H   UNL     1       1.841   4.751 -10.265  1.00  0.00     0.293 HD
ENDBRANCH  55  56
ENDBRANCH  49  50
ENDBRANCH  48  49
BRANCH  48  58
ATOM     58  C   UNL     1       2.877  -0.921 -16.052  1.00  0.00     0.326 C 
ATOM     59  O   UNL     1       3.389  -0.648 -17.126  1.00  0.00    -0.250 OA
BRANCH  58  60
ATOM     60  O   UNL     1       2.324  -2.147 -15.875  1.00  0.00    -0.480 OA
ATOM     61  H   UNL     1       1.960  -2.102 -14.965  1.00  0.00     0.296 HD
ENDBRANCH  58  60
ENDBRANCH  48  58
ENDBRANCH  46  48
ENDBRANCH  34  44
ENDBRANCH  32  34
ENDBRANCH  25  30
ENDBRANCH  23  25
ENDBRANCH   2  23
TORSDOF 28
ENDMDL
MODEL 10
REMARK VINA RESULT:    -4.653      9.058     13.826
REMARK INTER + INTRA:         -18.813
REMARK INTER:                 -14.196
REMARK INTRA:                  -4.617
REMARK UNBOUND:                -7.224
REMARK SMILES CCCCCCC[C@H](N)[C@H](O)C(=O)N[C@H](C)C(=O)N(C)[C@H](CC(C)C)C(=O)N[C@@H](Cc1ccc(O)cc1)C(=O)N[C@@H](Cc1ccc(O)cc1)C(=O)O
REMARK SMILES IDX 18 1 17 2 15 3 16 4 14 5 12 6 13 7 10 9 11 10 8 12 9 13 7 16
REMARK SMILES IDX 6 17 5 18 4 19 3 20 2 21 1 22 19 23 20 24 21 25 22 26 23 27
REMARK SMILES IDX 24 28 25 29 26 30 27 31 28 32 29 34 30 35 31 36 32 37 37 38
REMARK SMILES IDX 33 39 36 40 34 41 35 42 38 44 39 45 40 46 41 48 42 49 43 50
REMARK SMILES IDX 44 51 49 52 45 53 48 54 46 55 47 56 50 58 51 59 52 60
REMARK H PARENT 14 8 11 11 9 14 9 15 28 33 35 43 40 47 47 57 52 61
ROOT
ATOM      1  O   UNL     1       2.611  -2.920  -9.857  1.00  0.00    -0.272 OA
ATOM      2  C   UNL     1       3.504  -2.076 -10.025  1.00  0.00     0.245 C 
ENDROOT
BRANCH   2   3
ATOM      3  C   UNL     1       4.378  -1.671  -8.811  1.00  0.00     0.168 C 
ATOM      4  C   UNL     1       3.703  -0.569  -8.002  1.00  0.00     0.041 C 
BRANCH   3   5
ATOM      5  N   UNL     1       4.806  -2.777  -7.970  1.00  0.00    -0.342 N 
ATOM      6  C   UNL     1       6.115  -2.914  -7.557  1.00  0.00     0.251 C 
ATOM      7  O   UNL     1       7.014  -2.151  -7.895  1.00  0.00    -0.272 OA
ATOM      8  H   UNL     1       4.156  -3.493  -7.654  1.00  0.00     0.164 HD
BRANCH   6   9
ATOM      9  C   UNL     1       6.306  -4.070  -6.562  1.00  0.00     0.219 C 
BRANCH   9  10
ATOM     10  O   UNL     1       7.649  -4.570  -6.549  1.00  0.00    -0.382 OA
ATOM     11  H   UNL     1       7.691  -5.097  -5.721  1.00  0.00     0.211 HD
ENDBRANCH   9  10
BRANCH   9  12
ATOM     12  C   UNL     1       5.834  -3.723  -5.126  1.00  0.00     0.089 C 
BRANCH  12  13
ATOM     13  N   UNL     1       5.731  -2.250  -5.011  1.00  0.00    -0.325 NA
ATOM     14  H   UNL     1       6.213  -1.945  -4.164  1.00  0.00     0.119 HD
ATOM     15  H   UNL     1       4.751  -1.997  -4.866  1.00  0.00     0.119 HD
ENDBRANCH  12  13
BRANCH  12  16
ATOM     16  C   UNL     1       4.512  -4.386  -4.669  1.00  0.00     0.022 C 
BRANCH  16  17
ATOM     17  C   UNL     1       4.413  -5.917  -4.647  1.00  0.00     0.002 C 
BRANCH  17  18
ATOM     18  C   UNL     1       4.673  -6.560  -3.287  1.00  0.00     0.000 C 
BRANCH  18  19
ATOM     19  C   UNL     1       5.817  -7.583  -3.288  1.00  0.00    -0.000 C 
BRANCH  19  20
ATOM     20  C   UNL     1       7.095  -7.128  -4.000  1.00  0.00    -0.000 C 
BRANCH  20  21
ATOM     21  C   UNL     1       7.779  -8.253  -4.781  1.00  0.00    -0.003 C 
ATOM     22  C   UNL     1       9.292  -8.178  -4.651  1.00  0.00     0.004 C 
ENDBRANCH  20  21
ENDBRANCH  19  20
ENDBRANCH  18  19
ENDBRANCH  17  18
ENDBRANCH  16  17
ENDBRANCH  12  16
ENDBRANCH   9  12
ENDBRANCH   6   9
ENDBRANCH   3   5
ENDBRANCH   2   3
BRANCH   2  23
ATOM     23  N   UNL     1       3.785  -1.606 -11.303  1.00  0.00    -0.332 N 
ATOM     24  C   UNL     1       2.784  -1.140 -12.250  1.00  0.00     0.147 C 
BRANCH  23  25
ATOM     25  C   UNL     1       5.196  -1.428 -11.745  1.00  0.00     0.174 C 
BRANCH  25  26
ATOM     26  C   UNL     1       5.523   0.030 -12.143  1.00  0.00     0.038 C 
BRANCH  26  27
ATOM     27  C   UNL     1       5.706   1.046 -10.992  1.00  0.00    -0.015 C 
ATOM     28  C   UNL     1       6.851   0.666 -10.054  1.00  0.00     0.007 C 
ATOM     29  C   UNL     1       5.860   2.487 -11.473  1.00  0.00     0.007 C 
ENDBRANCH  26  27
ENDBRANCH  25  26
BRANCH  25  30
ATOM     30  C   UNL     1       5.546  -2.464 -12.837  1.00  0.00     0.243 C 
ATOM     31  O   UNL     1       5.445  -3.674 -12.642  1.00  0.00    -0.273 OA
ATOM     32  N   UNL     1       5.980  -1.945 -14.030  1.00  0.00    -0.342 N 
ATOM     33  H   UNL     1       5.902  -0.933 -14.162  1.00  0.00     0.164 HD
BRANCH  32  34
ATOM     34  C   UNL     1       6.381  -2.776 -15.168  1.00  0.00     0.175 C 
BRANCH  34  35
ATOM     35  C   UNL     1       5.549  -2.451 -16.418  1.00  0.00     0.070 C 
BRANCH  35  36
ATOM     36  C   UNL     1       4.535  -1.356 -16.177  1.00  0.00    -0.045 A 
ATOM     37  C   UNL     1       3.166  -1.619 -16.337  1.00  0.00     0.007 A 
ATOM     38  C   UNL     1       4.943  -0.065 -15.816  1.00  0.00     0.007 A 
ATOM     39  C   UNL     1       2.224  -0.611 -16.131  1.00  0.00     0.046 A 
ATOM     40  C   UNL     1       4.000   0.945 -15.610  1.00  0.00     0.046 A 
ATOM     41  C   UNL     1       2.648   0.662 -15.768  1.00  0.00     0.115 A 
BRANCH  41  42
ATOM     42  O   UNL     1       1.696   1.619 -15.579  1.00  0.00    -0.508 OA
ATOM     43  H   UNL     1       2.137   2.436 -15.292  1.00  0.00     0.293 HD
ENDBRANCH  41  42
ENDBRANCH  35  36
ENDBRANCH  34  35
BRANCH  34  44
ATOM     44  C   UNL     1       7.893  -2.562 -15.408  1.00  0.00     0.243 C 
ATOM     45  O   UNL     1       8.613  -3.336 -16.032  1.00  0.00    -0.273 OA
ATOM     46  N   UNL     1       8.405  -1.470 -14.740  1.00  0.00    -0.341 N 
ATOM     47  H   UNL     1       7.791  -0.925 -14.141  1.00  0.00     0.164 HD
BRANCH  46  48
ATOM     48  C   UNL     1       9.823  -1.105 -14.761  1.00  0.00     0.196 C 
BRANCH  48  49
ATOM     49  C   UNL     1      10.009   0.422 -14.761  1.00  0.00     0.072 C 
BRANCH  49  50
ATOM     50  C   UNL     1       9.020   1.129 -15.659  1.00  0.00    -0.045 A 
ATOM     51  C   UNL     1       8.975   0.823 -17.027  1.00  0.00     0.007 A 
ATOM     52  C   UNL     1       8.154   2.106 -15.150  1.00  0.00     0.007 A 
ATOM     53  C   UNL     1       8.075   1.478 -17.868  1.00  0.00     0.046 A 
ATOM     54  C   UNL     1       7.254   2.763 -15.992  1.00  0.00     0.046 A 
ATOM     55  C   UNL     1       7.222   2.442 -17.345  1.00  0.00     0.115 A 
BRANCH  55  56
ATOM     56  O   UNL     1       6.359   3.061 -18.201  1.00  0.00    -0.508 OA
ATOM     57  H   UNL     1       6.084   3.901 -17.802  1.00  0.00     0.293 HD
ENDBRANCH  55  56
ENDBRANCH  49  50
ENDBRANCH  48  49
BRANCH  48  58
ATOM     58  C   UNL     1      10.512  -1.708 -13.529  1.00  0.00     0.326 C 
ATOM     59  O   UNL     1      10.887  -2.860 -13.382  1.00  0.00    -0.250 OA
BRANCH  58  60
ATOM     60  O   UNL     1      10.714  -0.813 -12.530  1.00  0.00    -0.480 OA
ATOM     61  H   UNL     1      10.649  -1.363 -11.718  1.00  0.00     0.296 HD
ENDBRANCH  58  60
ENDBRANCH  48  58
ENDBRANCH  46  48
ENDBRANCH  34  44
ENDBRANCH  32  34
ENDBRANCH  25  30
ENDBRANCH  23  25
ENDBRANCH   2  23
TORSDOF 28
ENDMDL
